New load.pip456490-1 phases=1 bus=5001103939.1.2.4 model=2 kv=0.22 kw=0.014983076484018266 pf=0.92 conn=delta status=variable vmaxpu=1.5 vminpu=0.92 daily=IP
New load.pip456490-2 phases=1 bus=5001103939.1.2.4 model=3 kv=0.22 kw=0.014983076484018266 pf=0.92 conn=delta status=variable vmaxpu=1.5 vminpu=0.92 daily=IP

New load.pip458756-1 phases=1 bus=5001104079.1.2.4 model=2 kv=0.22 kw=0.014983076484018266 pf=0.92 conn=delta status=variable vmaxpu=1.5 vminpu=0.92 daily=IP
New load.pip458756-2 phases=1 bus=5001104079.1.2.4 model=3 kv=0.22 kw=0.014983076484018266 pf=0.92 conn=delta status=variable vmaxpu=1.5 vminpu=0.92 daily=IP

New load.pip464570-1 phases=1 bus=5009028087.1.2.4 model=2 kv=0.22 kw=0.013378190639269408 pf=0.92 conn=delta status=variable vmaxpu=1.5 vminpu=0.92 daily=IP
New load.pip464570-2 phases=1 bus=5009028087.1.2.4 model=3 kv=0.22 kw=0.013378190639269408 pf=0.92 conn=delta status=variable vmaxpu=1.5 vminpu=0.92 daily=IP

New load.pip466601-1 phases=1 bus=5009028085.1.2.4 model=2 kv=0.22 kw=0.013378190639269408 pf=0.92 conn=delta status=variable vmaxpu=1.5 vminpu=0.92 daily=IP
New load.pip466601-2 phases=1 bus=5009028085.1.2.4 model=3 kv=0.22 kw=0.013378190639269408 pf=0.92 conn=delta status=variable vmaxpu=1.5 vminpu=0.92 daily=IP

New load.pip484341-1 phases=1 bus=5008944782.3.1.4 model=2 kv=0.22 kw=0.013378190639269408 pf=0.92 conn=delta status=variable vmaxpu=1.5 vminpu=0.92 daily=IP
New load.pip484341-2 phases=1 bus=5008944782.3.1.4 model=3 kv=0.22 kw=0.013378190639269408 pf=0.92 conn=delta status=variable vmaxpu=1.5 vminpu=0.92 daily=IP

New load.pip486483-1 phases=1 bus=5001103890.2.3.4 model=2 kv=0.22 kw=0.014983076484018266 pf=0.92 conn=delta status=variable vmaxpu=1.5 vminpu=0.92 daily=IP
New load.pip486483-2 phases=1 bus=5001103890.2.3.4 model=3 kv=0.22 kw=0.014983076484018266 pf=0.92 conn=delta status=variable vmaxpu=1.5 vminpu=0.92 daily=IP

New load.pip506184-1 phases=1 bus=5008949765.3.1.4 model=2 kv=0.22 kw=0.013378190639269408 pf=0.92 conn=delta status=variable vmaxpu=1.5 vminpu=0.92 daily=IP
New load.pip506184-2 phases=1 bus=5008949765.3.1.4 model=3 kv=0.22 kw=0.013378190639269408 pf=0.92 conn=delta status=variable vmaxpu=1.5 vminpu=0.92 daily=IP

New load.pip513247-1 phases=1 bus=5008947630.3.1.4 model=2 kv=0.22 kw=0.013378190639269408 pf=0.92 conn=delta status=variable vmaxpu=1.5 vminpu=0.92 daily=IP
New load.pip513247-2 phases=1 bus=5008947630.3.1.4 model=3 kv=0.22 kw=0.013378190639269408 pf=0.92 conn=delta status=variable vmaxpu=1.5 vminpu=0.92 daily=IP

New load.pip519020-1 phases=1 bus=5008944788.2.3.4 model=2 kv=0.22 kw=0.013378190639269408 pf=0.92 conn=delta status=variable vmaxpu=1.5 vminpu=0.92 daily=IP
New load.pip519020-2 phases=1 bus=5008944788.2.3.4 model=3 kv=0.22 kw=0.013378190639269408 pf=0.92 conn=delta status=variable vmaxpu=1.5 vminpu=0.92 daily=IP

New load.pip522029-1 phases=1 bus=5008947627.3.1.4 model=2 kv=0.22 kw=0.013378190639269408 pf=0.92 conn=delta status=variable vmaxpu=1.5 vminpu=0.92 daily=IP
New load.pip522029-2 phases=1 bus=5008947627.3.1.4 model=3 kv=0.22 kw=0.013378190639269408 pf=0.92 conn=delta status=variable vmaxpu=1.5 vminpu=0.92 daily=IP

New load.pip523260-1 phases=1 bus=5008947628.2.3.4 model=2 kv=0.22 kw=0.013378190639269408 pf=0.92 conn=delta status=variable vmaxpu=1.5 vminpu=0.92 daily=IP
New load.pip523260-2 phases=1 bus=5008947628.2.3.4 model=3 kv=0.22 kw=0.013378190639269408 pf=0.92 conn=delta status=variable vmaxpu=1.5 vminpu=0.92 daily=IP

New load.pip524284-1 phases=1 bus=5009195591.2.3.4 model=2 kv=0.22 kw=0.013378190639269408 pf=0.92 conn=delta status=variable vmaxpu=1.5 vminpu=0.92 daily=IP
New load.pip524284-2 phases=1 bus=5009195591.2.3.4 model=3 kv=0.22 kw=0.013378190639269408 pf=0.92 conn=delta status=variable vmaxpu=1.5 vminpu=0.92 daily=IP

New load.pip524715-1 phases=1 bus=5001105073.2.3.4 model=2 kv=0.22 kw=0.01284324200913242 pf=0.92 conn=delta status=variable vmaxpu=1.5 vminpu=0.92 daily=IP
New load.pip524715-2 phases=1 bus=5001105073.2.3.4 model=3 kv=0.22 kw=0.01284324200913242 pf=0.92 conn=delta status=variable vmaxpu=1.5 vminpu=0.92 daily=IP

New load.pip524753-1 phases=1 bus=5009195589.3.1.4 model=2 kv=0.22 kw=0.013378190639269408 pf=0.92 conn=delta status=variable vmaxpu=1.5 vminpu=0.92 daily=IP
New load.pip524753-2 phases=1 bus=5009195589.3.1.4 model=3 kv=0.22 kw=0.013378190639269408 pf=0.92 conn=delta status=variable vmaxpu=1.5 vminpu=0.92 daily=IP

New load.pip525247-1 phases=1 bus=5008950034.3.1.4 model=2 kv=0.22 kw=0.013378190639269408 pf=0.92 conn=delta status=variable vmaxpu=1.5 vminpu=0.92 daily=IP
New load.pip525247-2 phases=1 bus=5008950034.3.1.4 model=3 kv=0.22 kw=0.013378190639269408 pf=0.92 conn=delta status=variable vmaxpu=1.5 vminpu=0.92 daily=IP

New load.pip525312-1 phases=1 bus=5008947632.1.2.4 model=2 kv=0.22 kw=0.013378190639269408 pf=0.92 conn=delta status=variable vmaxpu=1.5 vminpu=0.92 daily=IP
New load.pip525312-2 phases=1 bus=5008947632.1.2.4 model=3 kv=0.22 kw=0.013378190639269408 pf=0.92 conn=delta status=variable vmaxpu=1.5 vminpu=0.92 daily=IP

New load.pip526910-1 phases=1 bus=5008950008.3.1.4 model=2 kv=0.22 kw=0.013378190639269408 pf=0.92 conn=delta status=variable vmaxpu=1.5 vminpu=0.92 daily=IP
New load.pip526910-2 phases=1 bus=5008950008.3.1.4 model=3 kv=0.22 kw=0.013378190639269408 pf=0.92 conn=delta status=variable vmaxpu=1.5 vminpu=0.92 daily=IP

New load.pip529181-1 phases=1 bus=5009028081.2.3.4 model=2 kv=0.22 kw=0.013378190639269408 pf=0.92 conn=delta status=variable vmaxpu=1.5 vminpu=0.92 daily=IP
New load.pip529181-2 phases=1 bus=5009028081.2.3.4 model=3 kv=0.22 kw=0.013378190639269408 pf=0.92 conn=delta status=variable vmaxpu=1.5 vminpu=0.92 daily=IP

New load.pip529608-1 phases=1 bus=5008949787.1.2.4 model=2 kv=0.22 kw=0.013378190639269408 pf=0.92 conn=delta status=variable vmaxpu=1.5 vminpu=0.92 daily=IP
New load.pip529608-2 phases=1 bus=5008949787.1.2.4 model=3 kv=0.22 kw=0.013378190639269408 pf=0.92 conn=delta status=variable vmaxpu=1.5 vminpu=0.92 daily=IP

New load.pip530692-1 phases=1 bus=5009028079.1.2.4 model=2 kv=0.22 kw=0.013378190639269408 pf=0.92 conn=delta status=variable vmaxpu=1.5 vminpu=0.92 daily=IP
New load.pip530692-2 phases=1 bus=5009028079.1.2.4 model=3 kv=0.22 kw=0.013378190639269408 pf=0.92 conn=delta status=variable vmaxpu=1.5 vminpu=0.92 daily=IP

New load.pip530924-1 phases=1 bus=5008949770.1.2.4 model=2 kv=0.22 kw=0.013378190639269408 pf=0.92 conn=delta status=variable vmaxpu=1.5 vminpu=0.92 daily=IP
New load.pip530924-2 phases=1 bus=5008949770.1.2.4 model=3 kv=0.22 kw=0.013378190639269408 pf=0.92 conn=delta status=variable vmaxpu=1.5 vminpu=0.92 daily=IP

New load.pip531747-1 phases=1 bus=5008950039.3.1.4 model=2 kv=0.22 kw=0.013378190639269408 pf=0.92 conn=delta status=variable vmaxpu=1.5 vminpu=0.92 daily=IP
New load.pip531747-2 phases=1 bus=5008950039.3.1.4 model=3 kv=0.22 kw=0.013378190639269408 pf=0.92 conn=delta status=variable vmaxpu=1.5 vminpu=0.92 daily=IP

New load.pip532001-1 phases=1 bus=5001110855.1.2.4 model=2 kv=0.22 kw=0.01284324200913242 pf=0.92 conn=delta status=variable vmaxpu=1.5 vminpu=0.92 daily=IP
New load.pip532001-2 phases=1 bus=5001110855.1.2.4 model=3 kv=0.22 kw=0.01284324200913242 pf=0.92 conn=delta status=variable vmaxpu=1.5 vminpu=0.92 daily=IP

New load.pip532061-1 phases=1 bus=5001106340.3.1.4 model=2 kv=0.22 kw=0.00882841324200913 pf=0.92 conn=delta status=variable vmaxpu=1.5 vminpu=0.92 daily=IP
New load.pip532061-2 phases=1 bus=5001106340.3.1.4 model=3 kv=0.22 kw=0.00882841324200913 pf=0.92 conn=delta status=variable vmaxpu=1.5 vminpu=0.92 daily=IP

New load.pip532797-1 phases=1 bus=5008953963.1.2.4 model=2 kv=0.22 kw=0.01070200913242009 pf=0.92 conn=delta status=variable vmaxpu=1.5 vminpu=0.92 daily=IP
New load.pip532797-2 phases=1 bus=5008953963.1.2.4 model=3 kv=0.22 kw=0.01070200913242009 pf=0.92 conn=delta status=variable vmaxpu=1.5 vminpu=0.92 daily=IP

New load.pip535560-1 phases=1 bus=5001103918.1.2.4 model=2 kv=0.22 kw=0.014983076484018266 pf=0.92 conn=delta status=variable vmaxpu=1.5 vminpu=0.92 daily=IP
New load.pip535560-2 phases=1 bus=5001103918.1.2.4 model=3 kv=0.22 kw=0.014983076484018266 pf=0.92 conn=delta status=variable vmaxpu=1.5 vminpu=0.92 daily=IP

New load.pip537796-1 phases=1 bus=5009195588.3.1.4 model=2 kv=0.22 kw=0.013378190639269408 pf=0.92 conn=delta status=variable vmaxpu=1.5 vminpu=0.92 daily=IP
New load.pip537796-2 phases=1 bus=5009195588.3.1.4 model=3 kv=0.22 kw=0.013378190639269408 pf=0.92 conn=delta status=variable vmaxpu=1.5 vminpu=0.92 daily=IP

New load.pip537966-1 phases=1 bus=5009195603.1.2.4 model=2 kv=0.22 kw=0.008027186073059361 pf=0.92 conn=delta status=variable vmaxpu=1.5 vminpu=0.92 daily=IP
New load.pip537966-2 phases=1 bus=5009195603.1.2.4 model=3 kv=0.22 kw=0.008027186073059361 pf=0.92 conn=delta status=variable vmaxpu=1.5 vminpu=0.92 daily=IP

New load.pip538022-1 phases=1 bus=5008953925.1.2.4 model=2 kv=0.22 kw=0.01070200913242009 pf=0.92 conn=delta status=variable vmaxpu=1.5 vminpu=0.92 daily=IP
New load.pip538022-2 phases=1 bus=5008953925.1.2.4 model=3 kv=0.22 kw=0.01070200913242009 pf=0.92 conn=delta status=variable vmaxpu=1.5 vminpu=0.92 daily=IP

New load.pip538252-1 phases=1 bus=5008950010.1.2.4 model=2 kv=0.22 kw=0.013378190639269408 pf=0.92 conn=delta status=variable vmaxpu=1.5 vminpu=0.92 daily=IP
New load.pip538252-2 phases=1 bus=5008950010.1.2.4 model=3 kv=0.22 kw=0.013378190639269408 pf=0.92 conn=delta status=variable vmaxpu=1.5 vminpu=0.92 daily=IP

New load.pip540617-1 phases=1 bus=5008949782.1.2.4 model=2 kv=0.22 kw=0.013378190639269408 pf=0.92 conn=delta status=variable vmaxpu=1.5 vminpu=0.92 daily=IP
New load.pip540617-2 phases=1 bus=5008949782.1.2.4 model=3 kv=0.22 kw=0.013378190639269408 pf=0.92 conn=delta status=variable vmaxpu=1.5 vminpu=0.92 daily=IP

New load.pip542640-1 phases=1 bus=5001110862.1.2.4 model=2 kv=0.22 kw=0.01284324200913242 pf=0.92 conn=delta status=variable vmaxpu=1.5 vminpu=0.92 daily=IP
New load.pip542640-2 phases=1 bus=5001110862.1.2.4 model=3 kv=0.22 kw=0.01284324200913242 pf=0.92 conn=delta status=variable vmaxpu=1.5 vminpu=0.92 daily=IP

New load.pip543449-1 phases=1 bus=5008950050.1.2.4 model=2 kv=0.22 kw=0.013378190639269408 pf=0.92 conn=delta status=variable vmaxpu=1.5 vminpu=0.92 daily=IP
New load.pip543449-2 phases=1 bus=5008950050.1.2.4 model=3 kv=0.22 kw=0.013378190639269408 pf=0.92 conn=delta status=variable vmaxpu=1.5 vminpu=0.92 daily=IP

New load.pip543623-1 phases=1 bus=5008953941.1.2.4 model=2 kv=0.22 kw=0.01070200913242009 pf=0.92 conn=delta status=variable vmaxpu=1.5 vminpu=0.92 daily=IP
New load.pip543623-2 phases=1 bus=5008953941.1.2.4 model=3 kv=0.22 kw=0.01070200913242009 pf=0.92 conn=delta status=variable vmaxpu=1.5 vminpu=0.92 daily=IP

New load.pip544832-1 phases=1 bus=5008971834.1.2.4 model=2 kv=0.22 kw=0.013378190639269408 pf=0.92 conn=delta status=variable vmaxpu=1.5 vminpu=0.92 daily=IP
New load.pip544832-2 phases=1 bus=5008971834.1.2.4 model=3 kv=0.22 kw=0.013378190639269408 pf=0.92 conn=delta status=variable vmaxpu=1.5 vminpu=0.92 daily=IP

New load.pip545448-1 phases=1 bus=5009129110.1.2.4 model=2 kv=0.22 kw=0.013378190639269408 pf=0.92 conn=delta status=variable vmaxpu=1.5 vminpu=0.92 daily=IP
New load.pip545448-2 phases=1 bus=5009129110.1.2.4 model=3 kv=0.22 kw=0.013378190639269408 pf=0.92 conn=delta status=variable vmaxpu=1.5 vminpu=0.92 daily=IP

New load.pip545975-1 phases=1 bus=5008950048.2.3.4 model=2 kv=0.22 kw=0.013378190639269408 pf=0.92 conn=delta status=variable vmaxpu=1.5 vminpu=0.92 daily=IP
New load.pip545975-2 phases=1 bus=5008950048.2.3.4 model=3 kv=0.22 kw=0.013378190639269408 pf=0.92 conn=delta status=variable vmaxpu=1.5 vminpu=0.92 daily=IP

New load.pip550449-1 phases=1 bus=5001105059.1.2.4 model=2 kv=0.22 kw=0.01096634703196347 pf=0.92 conn=delta status=variable vmaxpu=1.5 vminpu=0.92 daily=IP
New load.pip550449-2 phases=1 bus=5001105059.1.2.4 model=3 kv=0.22 kw=0.01096634703196347 pf=0.92 conn=delta status=variable vmaxpu=1.5 vminpu=0.92 daily=IP

New load.pip551219-1 phases=1 bus=5008953994.3.1.4 model=2 kv=0.22 kw=0.013378190639269408 pf=0.92 conn=delta status=variable vmaxpu=1.5 vminpu=0.92 daily=IP
New load.pip551219-2 phases=1 bus=5008953994.3.1.4 model=3 kv=0.22 kw=0.013378190639269408 pf=0.92 conn=delta status=variable vmaxpu=1.5 vminpu=0.92 daily=IP

New load.pip551410-1 phases=1 bus=5009195601.3.1.4 model=2 kv=0.22 kw=0.008027186073059361 pf=0.92 conn=delta status=variable vmaxpu=1.5 vminpu=0.92 daily=IP
New load.pip551410-2 phases=1 bus=5009195601.3.1.4 model=3 kv=0.22 kw=0.008027186073059361 pf=0.92 conn=delta status=variable vmaxpu=1.5 vminpu=0.92 daily=IP

New load.pip552534-1 phases=1 bus=5008950042.1.2.4 model=2 kv=0.22 kw=0.013378190639269408 pf=0.92 conn=delta status=variable vmaxpu=1.5 vminpu=0.92 daily=IP
New load.pip552534-2 phases=1 bus=5008950042.1.2.4 model=3 kv=0.22 kw=0.013378190639269408 pf=0.92 conn=delta status=variable vmaxpu=1.5 vminpu=0.92 daily=IP

New load.pip553093-1 phases=1 bus=5009129114.2.3.4 model=2 kv=0.22 kw=0.013378190639269408 pf=0.92 conn=delta status=variable vmaxpu=1.5 vminpu=0.92 daily=IP
New load.pip553093-2 phases=1 bus=5009129114.2.3.4 model=3 kv=0.22 kw=0.013378190639269408 pf=0.92 conn=delta status=variable vmaxpu=1.5 vminpu=0.92 daily=IP

New load.pip553233-1 phases=1 bus=5001111401.1.2.4 model=2 kv=0.22 kw=0.013378190639269408 pf=0.92 conn=delta status=variable vmaxpu=1.5 vminpu=0.92 daily=IP
New load.pip553233-2 phases=1 bus=5001111401.1.2.4 model=3 kv=0.22 kw=0.013378190639269408 pf=0.92 conn=delta status=variable vmaxpu=1.5 vminpu=0.92 daily=IP

New load.pip553260-1 phases=1 bus=5008954077.3.1.4 model=2 kv=0.22 kw=0.01070200913242009 pf=0.92 conn=delta status=variable vmaxpu=1.5 vminpu=0.92 daily=IP
New load.pip553260-2 phases=1 bus=5008954077.3.1.4 model=3 kv=0.22 kw=0.01070200913242009 pf=0.92 conn=delta status=variable vmaxpu=1.5 vminpu=0.92 daily=IP

New load.pip553832-1 phases=1 bus=5008953937.1.2.4 model=2 kv=0.22 kw=0.01070200913242009 pf=0.92 conn=delta status=variable vmaxpu=1.5 vminpu=0.92 daily=IP
New load.pip553832-2 phases=1 bus=5008953937.1.2.4 model=3 kv=0.22 kw=0.01070200913242009 pf=0.92 conn=delta status=variable vmaxpu=1.5 vminpu=0.92 daily=IP

New load.pip554007-1 phases=1 bus=5008947633.3.1.4 model=2 kv=0.22 kw=0.013378190639269408 pf=0.92 conn=delta status=variable vmaxpu=1.5 vminpu=0.92 daily=IP
New load.pip554007-2 phases=1 bus=5008947633.3.1.4 model=3 kv=0.22 kw=0.013378190639269408 pf=0.92 conn=delta status=variable vmaxpu=1.5 vminpu=0.92 daily=IP

New load.pip554123-1 phases=1 bus=5008949763.3.1.4 model=2 kv=0.22 kw=0.013378190639269408 pf=0.92 conn=delta status=variable vmaxpu=1.5 vminpu=0.92 daily=IP
New load.pip554123-2 phases=1 bus=5008949763.3.1.4 model=3 kv=0.22 kw=0.013378190639269408 pf=0.92 conn=delta status=variable vmaxpu=1.5 vminpu=0.92 daily=IP

New load.pip554589-1 phases=1 bus=5001111380.1.2.4 model=2 kv=0.22 kw=0.013378190639269408 pf=0.92 conn=delta status=variable vmaxpu=1.5 vminpu=0.92 daily=IP
New load.pip554589-2 phases=1 bus=5001111380.1.2.4 model=3 kv=0.22 kw=0.013378190639269408 pf=0.92 conn=delta status=variable vmaxpu=1.5 vminpu=0.92 daily=IP

New load.pip554966-1 phases=1 bus=5008949768.1.2.4 model=2 kv=0.22 kw=0.013378190639269408 pf=0.92 conn=delta status=variable vmaxpu=1.5 vminpu=0.92 daily=IP
New load.pip554966-2 phases=1 bus=5008949768.1.2.4 model=3 kv=0.22 kw=0.013378190639269408 pf=0.92 conn=delta status=variable vmaxpu=1.5 vminpu=0.92 daily=IP

New load.pip555328-1 phases=1 bus=5009195593.1.2.4 model=2 kv=0.22 kw=0.013378190639269408 pf=0.92 conn=delta status=variable vmaxpu=1.5 vminpu=0.92 daily=IP
New load.pip555328-2 phases=1 bus=5009195593.1.2.4 model=3 kv=0.22 kw=0.013378190639269408 pf=0.92 conn=delta status=variable vmaxpu=1.5 vminpu=0.92 daily=IP

New load.pip555982-1 phases=1 bus=5009195592.1.2.4 model=2 kv=0.22 kw=0.013378190639269408 pf=0.92 conn=delta status=variable vmaxpu=1.5 vminpu=0.92 daily=IP
New load.pip555982-2 phases=1 bus=5009195592.1.2.4 model=3 kv=0.22 kw=0.013378190639269408 pf=0.92 conn=delta status=variable vmaxpu=1.5 vminpu=0.92 daily=IP

New load.pip555983-1 phases=1 bus=5008954033.1.2.4 model=2 kv=0.22 kw=0.01070200913242009 pf=0.92 conn=delta status=variable vmaxpu=1.5 vminpu=0.92 daily=IP
New load.pip555983-2 phases=1 bus=5008954033.1.2.4 model=3 kv=0.22 kw=0.01070200913242009 pf=0.92 conn=delta status=variable vmaxpu=1.5 vminpu=0.92 daily=IP

New load.pip556269-1 phases=1 bus=5008971839.1.2.4 model=2 kv=0.22 kw=0.01070200913242009 pf=0.92 conn=delta status=variable vmaxpu=1.5 vminpu=0.92 daily=IP
New load.pip556269-2 phases=1 bus=5008971839.1.2.4 model=3 kv=0.22 kw=0.01070200913242009 pf=0.92 conn=delta status=variable vmaxpu=1.5 vminpu=0.92 daily=IP

New load.pip557181-1 phases=1 bus=5009129116.3.1.4 model=2 kv=0.22 kw=0.013378190639269408 pf=0.92 conn=delta status=variable vmaxpu=1.5 vminpu=0.92 daily=IP
New load.pip557181-2 phases=1 bus=5009129116.3.1.4 model=3 kv=0.22 kw=0.013378190639269408 pf=0.92 conn=delta status=variable vmaxpu=1.5 vminpu=0.92 daily=IP

New load.pip557308-1 phases=1 bus=5008950045.1.2.4 model=2 kv=0.22 kw=0.013378190639269408 pf=0.92 conn=delta status=variable vmaxpu=1.5 vminpu=0.92 daily=IP
New load.pip557308-2 phases=1 bus=5008950045.1.2.4 model=3 kv=0.22 kw=0.013378190639269408 pf=0.92 conn=delta status=variable vmaxpu=1.5 vminpu=0.92 daily=IP

New load.pip558115-1 phases=1 bus=5001103953.1.2.4 model=2 kv=0.22 kw=0.014983076484018266 pf=0.92 conn=delta status=variable vmaxpu=1.5 vminpu=0.92 daily=IP
New load.pip558115-2 phases=1 bus=5001103953.1.2.4 model=3 kv=0.22 kw=0.014983076484018266 pf=0.92 conn=delta status=variable vmaxpu=1.5 vminpu=0.92 daily=IP

New load.pip559332-1 phases=1 bus=5001111639.1.2.4 model=2 kv=0.22 kw=0.00882841324200913 pf=0.92 conn=delta status=variable vmaxpu=1.5 vminpu=0.92 daily=IP
New load.pip559332-2 phases=1 bus=5001111639.1.2.4 model=3 kv=0.22 kw=0.00882841324200913 pf=0.92 conn=delta status=variable vmaxpu=1.5 vminpu=0.92 daily=IP

New load.pip559775-1 phases=1 bus=5009129122.2.3.4 model=2 kv=0.22 kw=0.013378190639269408 pf=0.92 conn=delta status=variable vmaxpu=1.5 vminpu=0.92 daily=IP
New load.pip559775-2 phases=1 bus=5009129122.2.3.4 model=3 kv=0.22 kw=0.013378190639269408 pf=0.92 conn=delta status=variable vmaxpu=1.5 vminpu=0.92 daily=IP

New load.pip560722-1 phases=1 bus=5009195600.2.3.4 model=2 kv=0.22 kw=0.008027186073059361 pf=0.92 conn=delta status=variable vmaxpu=1.5 vminpu=0.92 daily=IP
New load.pip560722-2 phases=1 bus=5009195600.2.3.4 model=3 kv=0.22 kw=0.008027186073059361 pf=0.92 conn=delta status=variable vmaxpu=1.5 vminpu=0.92 daily=IP

New load.pip561309-1 phases=1 bus=5008971858.1.2.4 model=2 kv=0.22 kw=0.01070200913242009 pf=0.92 conn=delta status=variable vmaxpu=1.5 vminpu=0.92 daily=IP
New load.pip561309-2 phases=1 bus=5008971858.1.2.4 model=3 kv=0.22 kw=0.01070200913242009 pf=0.92 conn=delta status=variable vmaxpu=1.5 vminpu=0.92 daily=IP

New load.pip561322-1 phases=1 bus=5009195604.3.1.4 model=2 kv=0.22 kw=0.013378190639269408 pf=0.92 conn=delta status=variable vmaxpu=1.5 vminpu=0.92 daily=IP
New load.pip561322-2 phases=1 bus=5009195604.3.1.4 model=3 kv=0.22 kw=0.013378190639269408 pf=0.92 conn=delta status=variable vmaxpu=1.5 vminpu=0.92 daily=IP

New load.pip561527-1 phases=1 bus=5008949795.2.3.4 model=2 kv=0.22 kw=0.013378190639269408 pf=0.92 conn=delta status=variable vmaxpu=1.5 vminpu=0.92 daily=IP
New load.pip561527-2 phases=1 bus=5008949795.2.3.4 model=3 kv=0.22 kw=0.013378190639269408 pf=0.92 conn=delta status=variable vmaxpu=1.5 vminpu=0.92 daily=IP

New load.pip561567-1 phases=1 bus=5009195605.3.1.4 model=2 kv=0.22 kw=0.013378190639269408 pf=0.92 conn=delta status=variable vmaxpu=1.5 vminpu=0.92 daily=IP
New load.pip561567-2 phases=1 bus=5009195605.3.1.4 model=3 kv=0.22 kw=0.013378190639269408 pf=0.92 conn=delta status=variable vmaxpu=1.5 vminpu=0.92 daily=IP

New load.pip562955-1 phases=1 bus=5001105087.1.2.4 model=2 kv=0.22 kw=0.01284324200913242 pf=0.92 conn=delta status=variable vmaxpu=1.5 vminpu=0.92 daily=IP
New load.pip562955-2 phases=1 bus=5001105087.1.2.4 model=3 kv=0.22 kw=0.01284324200913242 pf=0.92 conn=delta status=variable vmaxpu=1.5 vminpu=0.92 daily=IP

New load.pip563591-1 phases=1 bus=5008953974.3.1.4 model=2 kv=0.22 kw=0.008027186073059361 pf=0.92 conn=delta status=variable vmaxpu=1.5 vminpu=0.92 daily=IP
New load.pip563591-2 phases=1 bus=5008953974.3.1.4 model=3 kv=0.22 kw=0.008027186073059361 pf=0.92 conn=delta status=variable vmaxpu=1.5 vminpu=0.92 daily=IP

New load.pip563645-1 phases=1 bus=5009195610.3.1.4 model=2 kv=0.22 kw=0.013378190639269408 pf=0.92 conn=delta status=variable vmaxpu=1.5 vminpu=0.92 daily=IP
New load.pip563645-2 phases=1 bus=5009195610.3.1.4 model=3 kv=0.22 kw=0.013378190639269408 pf=0.92 conn=delta status=variable vmaxpu=1.5 vminpu=0.92 daily=IP

New load.pip564712-1 phases=1 bus=5008971859.1.2.4 model=2 kv=0.22 kw=0.01070200913242009 pf=0.92 conn=delta status=variable vmaxpu=1.5 vminpu=0.92 daily=IP
New load.pip564712-2 phases=1 bus=5008971859.1.2.4 model=3 kv=0.22 kw=0.01070200913242009 pf=0.92 conn=delta status=variable vmaxpu=1.5 vminpu=0.92 daily=IP

New load.pip564714-1 phases=1 bus=5001111681.3.1.4 model=2 kv=0.22 kw=0.00882841324200913 pf=0.92 conn=delta status=variable vmaxpu=1.5 vminpu=0.92 daily=IP
New load.pip564714-2 phases=1 bus=5001111681.3.1.4 model=3 kv=0.22 kw=0.00882841324200913 pf=0.92 conn=delta status=variable vmaxpu=1.5 vminpu=0.92 daily=IP

New load.pip565039-1 phases=1 bus=5008950051.2.3.4 model=2 kv=0.22 kw=0.013378190639269408 pf=0.92 conn=delta status=variable vmaxpu=1.5 vminpu=0.92 daily=IP
New load.pip565039-2 phases=1 bus=5008950051.2.3.4 model=3 kv=0.22 kw=0.013378190639269408 pf=0.92 conn=delta status=variable vmaxpu=1.5 vminpu=0.92 daily=IP

New load.pip565040-1 phases=1 bus=5008954085.2.3.4 model=2 kv=0.22 kw=0.01070200913242009 pf=0.92 conn=delta status=variable vmaxpu=1.5 vminpu=0.92 daily=IP
New load.pip565040-2 phases=1 bus=5008954085.2.3.4 model=3 kv=0.22 kw=0.01070200913242009 pf=0.92 conn=delta status=variable vmaxpu=1.5 vminpu=0.92 daily=IP

New load.pip565377-1 phases=1 bus=5001111352.3.1.4 model=2 kv=0.22 kw=0.013378190639269408 pf=0.92 conn=delta status=variable vmaxpu=1.5 vminpu=0.92 daily=IP
New load.pip565377-2 phases=1 bus=5001111352.3.1.4 model=3 kv=0.22 kw=0.013378190639269408 pf=0.92 conn=delta status=variable vmaxpu=1.5 vminpu=0.92 daily=IP

New load.pip566127-1 phases=1 bus=5008954091.1.2.4 model=2 kv=0.22 kw=0.01070200913242009 pf=0.92 conn=delta status=variable vmaxpu=1.5 vminpu=0.92 daily=IP
New load.pip566127-2 phases=1 bus=5008954091.1.2.4 model=3 kv=0.22 kw=0.01070200913242009 pf=0.92 conn=delta status=variable vmaxpu=1.5 vminpu=0.92 daily=IP

New load.pip566610-1 phases=1 bus=5008954083.1.2.4 model=2 kv=0.22 kw=0.01070200913242009 pf=0.92 conn=delta status=variable vmaxpu=1.5 vminpu=0.92 daily=IP
New load.pip566610-2 phases=1 bus=5008954083.1.2.4 model=3 kv=0.22 kw=0.01070200913242009 pf=0.92 conn=delta status=variable vmaxpu=1.5 vminpu=0.92 daily=IP

New load.pip566760-1 phases=1 bus=5008950046.3.1.4 model=2 kv=0.22 kw=0.013378190639269408 pf=0.92 conn=delta status=variable vmaxpu=1.5 vminpu=0.92 daily=IP
New load.pip566760-2 phases=1 bus=5008950046.3.1.4 model=3 kv=0.22 kw=0.013378190639269408 pf=0.92 conn=delta status=variable vmaxpu=1.5 vminpu=0.92 daily=IP

New load.pip567309-1 phases=1 bus=5001110820.2.3.4 model=2 kv=0.22 kw=0.01284324200913242 pf=0.92 conn=delta status=variable vmaxpu=1.5 vminpu=0.92 daily=IP
New load.pip567309-2 phases=1 bus=5001110820.2.3.4 model=3 kv=0.22 kw=0.01284324200913242 pf=0.92 conn=delta status=variable vmaxpu=1.5 vminpu=0.92 daily=IP

New load.pip567449-1 phases=1 bus=5009195606.2.3.4 model=2 kv=0.22 kw=0.013378190639269408 pf=0.92 conn=delta status=variable vmaxpu=1.5 vminpu=0.92 daily=IP
New load.pip567449-2 phases=1 bus=5009195606.2.3.4 model=3 kv=0.22 kw=0.013378190639269408 pf=0.92 conn=delta status=variable vmaxpu=1.5 vminpu=0.92 daily=IP

New load.pip567648-1 phases=1 bus=5008971818.3.1.4 model=2 kv=0.22 kw=0.01123835616438356 pf=0.92 conn=delta status=variable vmaxpu=1.5 vminpu=0.92 daily=IP
New load.pip567648-2 phases=1 bus=5008971818.3.1.4 model=3 kv=0.22 kw=0.01123835616438356 pf=0.92 conn=delta status=variable vmaxpu=1.5 vminpu=0.92 daily=IP

New load.pip568945-1 phases=1 bus=5008954029.2.3.4 model=2 kv=0.22 kw=0.01070200913242009 pf=0.92 conn=delta status=variable vmaxpu=1.5 vminpu=0.92 daily=IP
New load.pip568945-2 phases=1 bus=5008954029.2.3.4 model=3 kv=0.22 kw=0.01070200913242009 pf=0.92 conn=delta status=variable vmaxpu=1.5 vminpu=0.92 daily=IP

New load.pip568954-1 phases=1 bus=5008954027.3.1.4 model=2 kv=0.22 kw=0.01070200913242009 pf=0.92 conn=delta status=variable vmaxpu=1.5 vminpu=0.92 daily=IP
New load.pip568954-2 phases=1 bus=5008954027.3.1.4 model=3 kv=0.22 kw=0.01070200913242009 pf=0.92 conn=delta status=variable vmaxpu=1.5 vminpu=0.92 daily=IP

New load.pip569961-1 phases=1 bus=5001105038.2.3.4 model=2 kv=0.22 kw=0.01096634703196347 pf=0.92 conn=delta status=variable vmaxpu=1.5 vminpu=0.92 daily=IP
New load.pip569961-2 phases=1 bus=5001105038.2.3.4 model=3 kv=0.22 kw=0.01096634703196347 pf=0.92 conn=delta status=variable vmaxpu=1.5 vminpu=0.92 daily=IP

New load.pip570565-1 phases=1 bus=5008971812.3.1.4 model=2 kv=0.22 kw=0.01123835616438356 pf=0.92 conn=delta status=variable vmaxpu=1.5 vminpu=0.92 daily=IP
New load.pip570565-2 phases=1 bus=5008971812.3.1.4 model=3 kv=0.22 kw=0.01123835616438356 pf=0.92 conn=delta status=variable vmaxpu=1.5 vminpu=0.92 daily=IP

New load.pip572443-1 phases=1 bus=5008971798.3.1.4 model=2 kv=0.22 kw=0.01070200913242009 pf=0.92 conn=delta status=variable vmaxpu=1.5 vminpu=0.92 daily=IP
New load.pip572443-2 phases=1 bus=5008971798.3.1.4 model=3 kv=0.22 kw=0.01070200913242009 pf=0.92 conn=delta status=variable vmaxpu=1.5 vminpu=0.92 daily=IP

New load.pip572890-1 phases=1 bus=5008953944.3.1.4 model=2 kv=0.22 kw=0.008027186073059361 pf=0.92 conn=delta status=variable vmaxpu=1.5 vminpu=0.92 daily=IP
New load.pip572890-2 phases=1 bus=5008953944.3.1.4 model=3 kv=0.22 kw=0.008027186073059361 pf=0.92 conn=delta status=variable vmaxpu=1.5 vminpu=0.92 daily=IP

New load.pip572958-1 phases=1 bus=5008971794.2.3.4 model=2 kv=0.22 kw=0.01070200913242009 pf=0.92 conn=delta status=variable vmaxpu=1.5 vminpu=0.92 daily=IP
New load.pip572958-2 phases=1 bus=5008971794.2.3.4 model=3 kv=0.22 kw=0.01070200913242009 pf=0.92 conn=delta status=variable vmaxpu=1.5 vminpu=0.92 daily=IP

New load.pip573072-1 phases=1 bus=5009129120.3.1.4 model=2 kv=0.22 kw=0.013378190639269408 pf=0.92 conn=delta status=variable vmaxpu=1.5 vminpu=0.92 daily=IP
New load.pip573072-2 phases=1 bus=5009129120.3.1.4 model=3 kv=0.22 kw=0.013378190639269408 pf=0.92 conn=delta status=variable vmaxpu=1.5 vminpu=0.92 daily=IP

New load.pip573081-1 phases=1 bus=5008954052.3.1.4 model=2 kv=0.22 kw=0.01070200913242009 pf=0.92 conn=delta status=variable vmaxpu=1.5 vminpu=0.92 daily=IP
New load.pip573081-2 phases=1 bus=5008954052.3.1.4 model=3 kv=0.22 kw=0.01070200913242009 pf=0.92 conn=delta status=variable vmaxpu=1.5 vminpu=0.92 daily=IP

New load.pip573313-1 phases=1 bus=5008953726.1.2.4 model=2 kv=0.22 kw=0.01096634703196347 pf=0.92 conn=delta status=variable vmaxpu=1.5 vminpu=0.92 daily=IP
New load.pip573313-2 phases=1 bus=5008953726.1.2.4 model=3 kv=0.22 kw=0.01096634703196347 pf=0.92 conn=delta status=variable vmaxpu=1.5 vminpu=0.92 daily=IP

New load.pip573948-1 phases=1 bus=5001111443.1.2.4 model=2 kv=0.22 kw=0.013378190639269408 pf=0.92 conn=delta status=variable vmaxpu=1.5 vminpu=0.92 daily=IP
New load.pip573948-2 phases=1 bus=5001111443.1.2.4 model=3 kv=0.22 kw=0.013378190639269408 pf=0.92 conn=delta status=variable vmaxpu=1.5 vminpu=0.92 daily=IP

New load.pip574295-1 phases=1 bus=5009195607.3.1.4 model=2 kv=0.22 kw=0.013378190639269408 pf=0.92 conn=delta status=variable vmaxpu=1.5 vminpu=0.92 daily=IP
New load.pip574295-2 phases=1 bus=5009195607.3.1.4 model=3 kv=0.22 kw=0.013378190639269408 pf=0.92 conn=delta status=variable vmaxpu=1.5 vminpu=0.92 daily=IP

New load.pip576220-1 phases=1 bus=5001111688.1.2.4 model=2 kv=0.22 kw=0.00882841324200913 pf=0.92 conn=delta status=variable vmaxpu=1.5 vminpu=0.92 daily=IP
New load.pip576220-2 phases=1 bus=5001111688.1.2.4 model=3 kv=0.22 kw=0.00882841324200913 pf=0.92 conn=delta status=variable vmaxpu=1.5 vminpu=0.92 daily=IP

New load.pip576398-1 phases=1 bus=5008950036.1.2.4 model=2 kv=0.22 kw=0.013378190639269408 pf=0.92 conn=delta status=variable vmaxpu=1.5 vminpu=0.92 daily=IP
New load.pip576398-2 phases=1 bus=5008950036.1.2.4 model=3 kv=0.22 kw=0.013378190639269408 pf=0.92 conn=delta status=variable vmaxpu=1.5 vminpu=0.92 daily=IP

New load.pip576923-1 phases=1 bus=5001105031.1.2.4 model=2 kv=0.22 kw=0.01096634703196347 pf=0.92 conn=delta status=variable vmaxpu=1.5 vminpu=0.92 daily=IP
New load.pip576923-2 phases=1 bus=5001105031.1.2.4 model=3 kv=0.22 kw=0.01096634703196347 pf=0.92 conn=delta status=variable vmaxpu=1.5 vminpu=0.92 daily=IP

New load.pip576994-1 phases=1 bus=5008949783.1.2.4 model=2 kv=0.22 kw=0.013378190639269408 pf=0.92 conn=delta status=variable vmaxpu=1.5 vminpu=0.92 daily=IP
New load.pip576994-2 phases=1 bus=5008949783.1.2.4 model=3 kv=0.22 kw=0.013378190639269408 pf=0.92 conn=delta status=variable vmaxpu=1.5 vminpu=0.92 daily=IP

New load.pip577836-1 phases=1 bus=5008944784.1.2.4 model=2 kv=0.22 kw=0.013378190639269408 pf=0.92 conn=delta status=variable vmaxpu=1.5 vminpu=0.92 daily=IP