New line.ram2896723 phases=2 bus1=2140646.1.4 bus2=4002896723.1.4 length=0.017 units=km linecode=CABBTG01_4_1_2
New line.ram3000309 phases=3 bus1=2125694.2.3.4 bus2=4003000309.2.3.4 length=0.017 units=km linecode=CABBTG05_4_2_3
New line.ram3001079 phases=4 bus1=2125659.1.2.3.4 bus2=4003001079.1.2.3.4 length=0.017 units=km linecode=CABBTG07_4_3_4
New line.ram3001086 phases=3 bus1=2125659.3.1.4 bus2=4003001086.3.1.4 length=0.017 units=km linecode=CABBTG05_4_2_3
New line.ram3001093 phases=4 bus1=2125659.1.2.3.4 bus2=4003001093.1.2.3.4 length=0.017 units=km linecode=CABBTG07_4_3_4
New line.ram3001100 phases=4 bus1=2125659.1.2.3.4 bus2=4003001100.1.2.3.4 length=0.017 units=km linecode=CABBTG07_4_3_4
New line.ram3001107 phases=3 bus1=2125659.2.3.4 bus2=4003001107.2.3.4 length=0.017 units=km linecode=CABBTG05_4_2_3
New line.ram3001114 phases=3 bus1=2125666.2.3.4 bus2=4003001114.2.3.4 length=0.017 units=km linecode=CABBTG05_4_2_3
New line.ram3001128 phases=3 bus1=2125687.2.3.4 bus2=4003001128.2.3.4 length=0.017 units=km linecode=CABBTG05_4_2_3
New line.ram3001135 phases=3 bus1=2125687.2.3.4 bus2=4003001135.2.3.4 length=0.017 units=km linecode=CABBTG05_4_2_3
New line.ram3001142 phases=3 bus1=2125687.2.3.4 bus2=4003001142.2.3.4 length=0.017 units=km linecode=CABBTG05_4_2_3
New line.ram3001149 phases=4 bus1=2125687.1.2.3.4 bus2=4003001149.1.2.3.4 length=0.017 units=km linecode=CABBTG07_4_3_4
New line.ram3001156 phases=3 bus1=2125687.3.1.4 bus2=4003001156.3.1.4 length=0.017 units=km linecode=CABBTG05_4_2_3
New line.ram3001163 phases=3 bus1=2125687.3.1.4 bus2=4003001163.3.1.4 length=0.017 units=km linecode=CABBTG05_4_2_3
New line.ram3001177 phases=3 bus1=2125694.2.3.4 bus2=4003001177.2.3.4 length=0.017 units=km linecode=CABBTG05_4_2_3
New line.ram3001184 phases=3 bus1=2125701.3.1.4 bus2=4003001184.3.1.4 length=0.017 units=km linecode=CABBTG05_4_2_3
New line.ram3001191 phases=3 bus1=2125701.3.1.4 bus2=4003001191.3.1.4 length=0.017 units=km linecode=CABBTG05_4_2_3
New line.ram3001198 phases=3 bus1=2125701.1.2.4 bus2=4003001198.1.2.4 length=0.017 units=km linecode=CABBTG05_4_2_3
New line.ram3001205 phases=3 bus1=2125701.1.2.4 bus2=4003001205.1.2.4 length=0.017 units=km linecode=CABBTG05_4_2_3
New line.ram3001212 phases=3 bus1=2125708.2.3.4 bus2=4003001212.2.3.4 length=0.017 units=km linecode=CABBTG05_4_2_3
New line.ram3001219 phases=3 bus1=2125708.3.1.4 bus2=4003001219.3.1.4 length=0.017 units=km linecode=CABBTG05_4_2_3
New line.ram3001226 phases=3 bus1=2125708.2.3.4 bus2=4003001226.2.3.4 length=0.017 units=km linecode=CABBTG05_4_2_3
New line.ram3001233 phases=3 bus1=2125715.1.2.4 bus2=4003001233.1.2.4 length=0.017 units=km linecode=CABBTG05_4_2_3
New line.ram3001240 phases=3 bus1=2125715.2.3.4 bus2=4003001240.2.3.4 length=0.017 units=km linecode=CABBTG05_4_2_3
New line.ram3001247 phases=3 bus1=2125729.3.1.4 bus2=4003001247.3.1.4 length=0.017 units=km linecode=CABBTG05_4_2_3
New line.ram3001254 phases=3 bus1=2125729.1.2.4 bus2=4003001254.1.2.4 length=0.017 units=km linecode=CABBTG05_4_2_3
New line.ram3001261 phases=4 bus1=2125736.1.2.3.4 bus2=4003001261.1.2.3.4 length=0.017 units=km linecode=CABBTG07_4_3_4
New line.ram3001268 phases=3 bus1=2125743.1.2.4 bus2=4003001268.1.2.4 length=0.017 units=km linecode=CABBTG05_4_2_3
New line.ram3001275 phases=3 bus1=2125743.1.2.4 bus2=4003001275.1.2.4 length=0.017 units=km linecode=CABBTG05_4_2_3
New line.ram3001282 phases=4 bus1=2125750.1.2.3.4 bus2=4003001282.1.2.3.4 length=0.017 units=km linecode=CABBTG07_4_3_4
New line.ram3001289 phases=4 bus1=2125750.1.2.3.4 bus2=4003001289.1.2.3.4 length=0.017 units=km linecode=CABBTG07_4_3_4
New line.ram3001296 phases=3 bus1=2125750.1.2.4 bus2=4003001296.1.2.4 length=0.017 units=km linecode=CABBTG05_4_2_3
New line.ram3001303 phases=3 bus1=2125750.3.1.4 bus2=4003001303.3.1.4 length=0.017 units=km linecode=CABBTG05_4_2_3
New line.ram3001310 phases=4 bus1=2125757.1.2.3.4 bus2=4003001310.1.2.3.4 length=0.017 units=km linecode=CABBTG07_4_3_4
New line.ram3001317 phases=4 bus1=2125757.1.2.3.4 bus2=4003001317.1.2.3.4 length=0.017 units=km linecode=CABBTG07_4_3_4
New line.ram3001331 phases=4 bus1=2125757.1.2.3.4 bus2=4003001331.1.2.3.4 length=0.017 units=km linecode=CABBTG07_4_3_4
New line.ram3001338 phases=3 bus1=2125764.1.2.4 bus2=4003001338.1.2.4 length=0.017 units=km linecode=CABBTG05_4_2_3
New line.ram3005069 phases=4 bus1=2128060.1.2.3.4 bus2=4003005069.1.2.3.4 length=0.017 units=km linecode=CABBTG07_4_3_4
New line.ram3005076 phases=3 bus1=2128060.1.2.4 bus2=4003005076.1.2.4 length=0.017 units=km linecode=CABBTG05_4_2_3
New line.ram3005083 phases=3 bus1=2128060.1.2.4 bus2=4003005083.1.2.4 length=0.017 units=km linecode=CABBTG05_4_2_3
New line.ram3005090 phases=3 bus1=2128067.3.1.4 bus2=4003005090.3.1.4 length=0.017 units=km linecode=CABBTG05_4_2_3
New line.ram3005097 phases=3 bus1=2128067.1.2.4 bus2=4003005097.1.2.4 length=0.017 units=km linecode=CABBTG05_4_2_3
New line.ram3005104 phases=4 bus1=2128081.1.2.3.4 bus2=4003005104.1.2.3.4 length=0.017 units=km linecode=CABBTG07_4_3_4
New line.ram3005111 phases=4 bus1=2128081.1.2.3.4 bus2=4003005111.1.2.3.4 length=0.017 units=km linecode=CABBTG07_4_3_4
New line.ram3005118 phases=3 bus1=2128088.1.2.4 bus2=4003005118.1.2.4 length=0.017 units=km linecode=CABBTG05_4_2_3
New line.ram3005125 phases=3 bus1=2128088.3.1.4 bus2=4003005125.3.1.4 length=0.017 units=km linecode=CABBTG05_4_2_3
New line.ram3005132 phases=3 bus1=2128088.2.3.4 bus2=4003005132.2.3.4 length=0.017 units=km linecode=CABBTG05_4_2_3
New line.ram3005139 phases=3 bus1=2128109.2.3.4 bus2=4003005139.2.3.4 length=0.017 units=km linecode=CABBTG05_4_2_3
New line.ram3005146 phases=3 bus1=2128123.1.2.4 bus2=4003005146.1.2.4 length=0.017 units=km linecode=CABBTG05_4_2_3
New line.ram3005153 phases=4 bus1=2128123.1.2.3.4 bus2=4003005153.1.2.3.4 length=0.017 units=km linecode=CABBTG07_4_3_4
New line.ram3005160 phases=3 bus1=2128123.3.1.4 bus2=4003005160.3.1.4 length=0.017 units=km linecode=CABBTG05_4_2_3
New line.ram3005167 phases=3 bus1=2128130.2.3.4 bus2=4003005167.2.3.4 length=0.017 units=km linecode=CABBTG05_4_2_3
New line.ram3005174 phases=3 bus1=2128165.2.3.4 bus2=4003005174.2.3.4 length=0.017 units=km linecode=CABBTG05_4_2_3
New line.ram3005181 phases=3 bus1=2128165.2.3.4 bus2=4003005181.2.3.4 length=0.017 units=km linecode=CABBTG05_4_2_3
New line.ram3005188 phases=3 bus1=2128165.3.1.4 bus2=4003005188.3.1.4 length=0.017 units=km linecode=CABBTG05_4_2_3
New line.ram3005195 phases=3 bus1=2128165.2.3.4 bus2=4003005195.2.3.4 length=0.017 units=km linecode=CABBTG05_4_2_3
New line.ram3005202 phases=3 bus1=2128186.1.2.4 bus2=4003005202.1.2.4 length=0.017 units=km linecode=CABBTG05_4_2_3
New line.ram3005209 phases=3 bus1=2128186.1.2.4 bus2=4003005209.1.2.4 length=0.017 units=km linecode=CABBTG05_4_2_3
New line.ram3005216 phases=4 bus1=2128186.1.2.3.4 bus2=4003005216.1.2.3.4 length=0.017 units=km linecode=CABBTG07_4_3_4
New line.ram3005223 phases=3 bus1=2128193.3.1.4 bus2=4003005223.3.1.4 length=0.017 units=km linecode=CABBTG05_4_2_3
New line.ram3009430 phases=3 bus1=2135235.1.2.4 bus2=4003009430.1.2.4 length=0.017 units=km linecode=CABBTG05_4_2_3
New line.ram3009437 phases=3 bus1=2135235.3.1.4 bus2=4003009437.3.1.4 length=0.017 units=km linecode=CABBTG05_4_2_3
New line.ram3009444 phases=3 bus1=2135235.2.3.4 bus2=4003009444.2.3.4 length=0.017 units=km linecode=CABBTG05_4_2_3
New line.ram3009451 phases=3 bus1=2135235.2.3.4 bus2=4003009451.2.3.4 length=0.017 units=km linecode=CABBTG05_4_2_3
New line.ram3009836 phases=4 bus1=2130951.1.2.3.4 bus2=4003009836.1.2.3.4 length=0.017 units=km linecode=CABBTG07_4_3_4
New line.ram3009843 phases=4 bus1=2130951.1.2.3.4 bus2=4003009843.1.2.3.4 length=0.017 units=km linecode=CABBTG07_4_3_4
New line.ram3009850 phases=4 bus1=2130965.1.2.3.4 bus2=4003009850.1.2.3.4 length=0.017 units=km linecode=CABBTG06_4_3_4
New line.ram3009857 phases=3 bus1=2130965.2.3.4 bus2=4003009857.2.3.4 length=0.017 units=km linecode=CABBTG05_4_2_3
New line.ram3009864 phases=4 bus1=2130972.1.2.3.4 bus2=4003009864.1.2.3.4 length=0.017 units=km linecode=CABBTG07_4_3_4
New line.ram3009871 phases=4 bus1=2130972.1.2.3.4 bus2=4003009871.1.2.3.4 length=0.017 units=km linecode=CABBTG07_4_3_4
New line.ram3009878 phases=3 bus1=2130979.2.3.4 bus2=4003009878.2.3.4 length=0.017 units=km linecode=CABBTG05_4_2_3
New line.ram3009885 phases=3 bus1=2130979.1.2.4 bus2=4003009885.1.2.4 length=0.017 units=km linecode=CABBTG05_4_2_3
New line.ram3009892 phases=4 bus1=2130979.1.2.3.4 bus2=4003009892.1.2.3.4 length=0.017 units=km linecode=CABBTG07_4_3_4
New line.ram3009899 phases=3 bus1=2130993.1.2.4 bus2=4003009899.1.2.4 length=0.017 units=km linecode=CABBTG05_4_2_3
New line.ram3009906 phases=4 bus1=2131021.1.2.3.4 bus2=4003009906.1.2.3.4 length=0.017 units=km linecode=CABBTG06_4_3_4
New line.ram3009913 phases=3 bus1=2131021.2.3.4 bus2=4003009913.2.3.4 length=0.017 units=km linecode=CABBTG05_4_2_3
New line.ram3009920 phases=3 bus1=2131021.1.2.4 bus2=4003009920.1.2.4 length=0.017 units=km linecode=CABBTG05_4_2_3
New line.ram3009927 phases=3 bus1=2131021.2.3.4 bus2=4003009927.2.3.4 length=0.017 units=km linecode=CABBTG05_4_2_3
New line.ram3009934 phases=3 bus1=2131028.2.3.4 bus2=4003009934.2.3.4 length=0.017 units=km linecode=CABBTG05_4_2_3
New line.ram3009941 phases=3 bus1=2131028.1.2.4 bus2=4003009941.1.2.4 length=0.017 units=km linecode=CABBTG05_4_2_3
New line.ram3009948 phases=2 bus1=2131021.2.4 bus2=4003009948.2.4 length=0.017 units=km linecode=CABBTG01_4_1_2
New line.ram3009955 phases=3 bus1=2131035.2.3.4 bus2=4003009955.2.3.4 length=0.017 units=km linecode=CABBTG05_4_2_3
New line.ram3009962 phases=3 bus1=2131035.1.2.4 bus2=4003009962.1.2.4 length=0.017 units=km linecode=CABBTG05_4_2_3
New line.ram3009969 phases=4 bus1=2131035.1.2.3.4 bus2=4003009969.1.2.3.4 length=0.017 units=km linecode=CABBTG07_4_3_4
New line.ram3013553 phases=4 bus1=2133093.1.2.3.4 bus2=4003013553.1.2.3.4 length=0.017 units=km linecode=CABBTG06_4_3_4
New line.ram3013560 phases=3 bus1=2133093.2.3.4 bus2=4003013560.2.3.4 length=0.017 units=km linecode=CABBTG05_4_2_3
New line.ram3013567 phases=3 bus1=2133100.3.1.4 bus2=4003013567.3.1.4 length=0.017 units=km linecode=CABBTG05_4_2_3
New line.ram3013574 phases=4 bus1=2133100.1.2.3.4 bus2=4003013574.1.2.3.4 length=0.017 units=km linecode=CABBTG07_4_3_4
New line.ram3013581 phases=3 bus1=2133107.2.3.4 bus2=4003013581.2.3.4 length=0.017 units=km linecode=CABBTG05_4_2_3
New line.ram3013588 phases=3 bus1=2133107.1.2.4 bus2=4003013588.1.2.4 length=0.017 units=km linecode=CABBTG05_4_2_3
New line.ram3013595 phases=3 bus1=2133107.1.2.4 bus2=4003013595.1.2.4 length=0.017 units=km linecode=CABBTG05_4_2_3
New line.ram3013602 phases=3 bus1=2133107.3.1.4 bus2=4003013602.3.1.4 length=0.017 units=km linecode=CABBTG05_4_2_3
New line.ram3013609 phases=3 bus1=2133107.3.1.4 bus2=4003013609.3.1.4 length=0.017 units=km linecode=CABBTG05_4_2_3
New line.ram3013616 phases=3 bus1=2133121.2.3.4 bus2=4003013616.2.3.4 length=0.017 units=km linecode=CABBTG05_4_2_3
New line.ram3013623 phases=3 bus1=2133121.1.2.4 bus2=4003013623.1.2.4 length=0.017 units=km linecode=CABBTG05_4_2_3
New line.ram3013630 phases=3 bus1=2133135.2.3.4 bus2=4003013630.2.3.4 length=0.017 units=km linecode=CABBTG05_4_2_3
New line.ram3013637 phases=3 bus1=2133121.1.2.4 bus2=4003013637.1.2.4 length=0.017 units=km linecode=CABBTG05_4_2_3
New line.ram3013644 phases=3 bus1=2133135.2.3.4 bus2=4003013644.2.3.4 length=0.017 units=km linecode=CABBTG05_4_2_3
New line.ram3013651 phases=3 bus1=2133135.3.1.4 bus2=4003013651.3.1.4 length=0.017 units=km linecode=CABBTG05_4_2_3
New line.ram3013658 phases=3 bus1=2133135.1.2.4 bus2=4003013658.1.2.4 length=0.017 units=km linecode=CABBTG05_4_2_3
New line.ram3013665 phases=3 bus1=2133135.1.2.4 bus2=4003013665.1.2.4 length=0.017 units=km linecode=CABBTG05_4_2_3
New line.ram3013672 phases=3 bus1=2133135.3.1.4 bus2=4003013672.3.1.4 length=0.017 units=km linecode=CABBTG05_4_2_3
New line.ram3013679 phases=3 bus1=2133142.1.2.4 bus2=4003013679.1.2.4 length=0.017 units=km linecode=CABBTG05_4_2_3
New line.ram3013686 phases=4 bus1=2133142.1.2.3.4 bus2=4003013686.1.2.3.4 length=0.017 units=km linecode=CABBTG06_4_3_4
New line.ram3013693 phases=3 bus1=2133149.2.3.4 bus2=4003013693.2.3.4 length=0.017 units=km linecode=CABBTG05_4_2_3
New line.ram3013700 phases=3 bus1=2133156.2.3.4 bus2=4003013700.2.3.4 length=0.017 units=km linecode=CABBTG05_4_2_3
New line.ram3013707 phases=3 bus1=2133163.3.1.4 bus2=4003013707.3.1.4 length=0.017 units=km linecode=CABBTG05_4_2_3
New line.ram3013714 phases=3 bus1=2133163.3.1.4 bus2=4003013714.3.1.4 length=0.017 units=km linecode=CABBTG05_4_2_3
New line.ram3013721 phases=4 bus1=2133170.1.2.3.4 bus2=4003013721.1.2.3.4 length=0.017 units=km linecode=CABBTG07_4_3_4
New line.ram3013728 phases=3 bus1=2133170.3.1.4 bus2=4003013728.3.1.4 length=0.017 units=km linecode=CABBTG05_4_2_3
New line.ram3013735 phases=3 bus1=2133177.2.3.4 bus2=4003013735.2.3.4 length=0.017 units=km linecode=CABBTG05_4_2_3
New line.ram3013742 phases=3 bus1=2133177.3.1.4 bus2=4003013742.3.1.4 length=0.017 units=km linecode=CABBTG05_4_2_3
New line.ram3013749 phases=3 bus1=2133177.3.1.4 bus2=4003013749.3.1.4 length=0.017 units=km linecode=CABBTG05_4_2_3
New line.ram3013756 phases=3 bus1=2133177.2.3.4 bus2=4003013756.2.3.4 length=0.017 units=km linecode=CABBTG05_4_2_3
New line.ram3013763 phases=3 bus1=2133205.2.3.4 bus2=4003013763.2.3.4 length=0.017 units=km linecode=CABBTG05_4_2_3
New line.ram3013770 phases=3 bus1=2133219.1.2.4 bus2=4003013770.1.2.4 length=0.017 units=km linecode=CABBTG05_4_2_3
New line.ram3013777 phases=4 bus1=2133205.1.2.3.4 bus2=4003013777.1.2.3.4 length=0.017 units=km linecode=CABBTG07_4_3_4
New line.ram3013784 phases=4 bus1=2133212.1.2.3.4 bus2=4003013784.1.2.3.4 length=0.017 units=km linecode=CABBTG07_4_3_4
New line.ram3013791 phases=3 bus1=2133212.1.2.4 bus2=4003013791.1.2.4 length=0.017 units=km linecode=CABBTG05_4_2_3
New line.ram3013798 phases=4 bus1=2133212.1.2.3.4 bus2=4003013798.1.2.3.4 length=0.017 units=km linecode=CABBTG07_4_3_4
New line.ram3013805 phases=4 bus1=2133212.1.2.3.4 bus2=4003013805.1.2.3.4 length=0.017 units=km linecode=CABBTG07_4_3_4
New line.ram3013812 phases=4 bus1=2133212.1.2.3.4 bus2=4003013812.1.2.3.4 length=0.017 units=km linecode=CABBTG07_4_3_4
New line.ram3013819 phases=3 bus1=2133212.3.1.4 bus2=4003013819.3.1.4 length=0.017 units=km linecode=CABBTG05_4_2_3
New line.ram3013826 phases=3 bus1=2133226.2.3.4 bus2=4003013826.2.3.4 length=0.017 units=km linecode=CABBTG05_4_2_3
New line.ram3013833 phases=3 bus1=2133226.1.2.4 bus2=4003013833.1.2.4 length=0.017 units=km linecode=CABBTG05_4_2_3
New line.ram3013840 phases=3 bus1=2133226.3.1.4 bus2=4003013840.3.1.4 length=0.017 units=km linecode=CABBTG05_4_2_3
New line.ram3013847 phases=3 bus1=2133226.2.3.4 bus2=4003013847.2.3.4 length=0.017 units=km linecode=CABBTG05_4_2_3
New line.ram3013854 phases=4 bus1=2133226.1.2.3.4 bus2=4003013854.1.2.3.4 length=0.017 units=km linecode=CABBTG07_4_3_4
New line.ram3013861 phases=4 bus1=2133226.1.2.3.4 bus2=4003013861.1.2.3.4 length=0.017 units=km linecode=CABBTG07_4_3_4
New line.ram3013868 phases=3 bus1=2133226.1.2.4 bus2=4003013868.1.2.4 length=0.017 units=km linecode=CABBTG05_4_2_3
New line.ram3013875 phases=3 bus1=2133226.1.2.4 bus2=4003013875.1.2.4 length=0.017 units=km linecode=CABBTG05_4_2_3
New line.ram3013882 phases=4 bus1=2133226.1.2.3.4 bus2=4003013882.1.2.3.4 length=0.017 units=km linecode=CABBTG07_4_3_4
New line.ram3013889 phases=3 bus1=2133240.2.3.4 bus2=4003013889.2.3.4 length=0.017 units=km linecode=CABBTG05_4_2_3
New line.ram3013896 phases=3 bus1=2133240.1.2.4 bus2=4003013896.1.2.4 length=0.017 units=km linecode=CABBTG05_4_2_3
New line.ram3015772 phases=3 bus1=2134325.3.1.4 bus2=4003015772.3.1.4 length=0.017 units=km linecode=CABBTG05_4_2_3
New line.ram3015779 phases=3 bus1=2134339.1.2.4 bus2=4003015779.1.2.4 length=0.017 units=km linecode=CABBTG05_4_2_3
New line.ram3015786 phases=3 bus1=2134353.1.2.4 bus2=4003015786.1.2.4 length=0.017 units=km linecode=CABBTG05_4_2_3
New line.ram3015793 phases=3 bus1=2134353.2.3.4 bus2=4003015793.2.3.4 length=0.017 units=km linecode=CABBTG05_4_2_3
New line.ram3015800 phases=3 bus1=2134367.2.3.4 bus2=4003015800.2.3.4 length=0.017 units=km linecode=CABBTG05_4_2_3
New line.ram3015807 phases=3 bus1=2134374.1.2.4 bus2=4003015807.1.2.4 length=0.017 units=km linecode=CABBTG05_4_2_3
New line.ram3015814 phases=3 bus1=2134374.2.3.4 bus2=4003015814.2.3.4 length=0.017 units=km linecode=CABBTG05_4_2_3
New line.ram3015821 phases=3 bus1=2134381.3.1.4 bus2=4003015821.3.1.4 length=0.017 units=km linecode=CABBTG05_4_2_3
New line.ram3015828 phases=3 bus1=2134381.1.2.4 bus2=4003015828.1.2.4 length=0.017 units=km linecode=CABBTG05_4_2_3
New line.ram3015835 phases=3 bus1=2134381.2.3.4 bus2=4003015835.2.3.4 length=0.017 units=km linecode=CABBTG05_4_2_3
New line.ram3015842 phases=3 bus1=2134388.3.1.4 bus2=4003015842.3.1.4 length=0.017 units=km linecode=CABBTG05_4_2_3
New line.ram3015849 phases=3 bus1=2134388.3.1.4 bus2=4003015849.3.1.4 length=0.017 units=km linecode=CABBTG05_4_2_3
New line.ram3015856 phases=3 bus1=2134388.1.2.4 bus2=4003015856.1.2.4 length=0.017 units=km linecode=CABBTG05_4_2_3
New line.ram3015863 phases=3 bus1=2134388.1.2.4 bus2=4003015863.1.2.4 length=0.017 units=km linecode=CABBTG05_4_2_3
New line.ram3015870 phases=3 bus1=2134388.1.2.4 bus2=4003015870.1.2.4 length=0.017 units=km linecode=CABBTG05_4_2_3
New line.ram3015877 phases=4 bus1=2134395.1.2.3.4 bus2=4003015877.1.2.3.4 length=0.017 units=km linecode=CABBTG06_4_3_4
New line.ram3015884 phases=4 bus1=2134395.1.2.3.4 bus2=4003015884.1.2.3.4 length=0.017 units=km linecode=CABBTG07_4_3_4
New line.ram3015891 phases=3 bus1=2134395.2.3.4 bus2=4003015891.2.3.4 length=0.017 units=km linecode=CABBTG05_4_2_3
New line.ram3015898 phases=3 bus1=2134395.3.1.4 bus2=4003015898.3.1.4 length=0.017 units=km linecode=CABBTG05_4_2_3
New line.ram3015905 phases=4 bus1=2134395.1.2.3.4 bus2=4003015905.1.2.3.4 length=0.017 units=km linecode=CABBTG07_4_3_4
New line.ram3015912 phases=3 bus1=2134402.1.2.4 bus2=4003015912.1.2.4 length=0.017 units=km linecode=CABBTG05_4_2_3
New line.ram3015919 phases=3 bus1=2134402.3.1.4 bus2=4003015919.3.1.4 length=0.017 units=km linecode=CABBTG05_4_2_3
New line.ram3015926 phases=3 bus1=2134409.2.3.4 bus2=4003015926.2.3.4 length=0.017 units=km linecode=CABBTG05_4_2_3
New line.ram3015933 phases=4 bus1=2134416.1.2.3.4 bus2=4003015933.1.2.3.4 length=0.017 units=km linecode=CABBTG07_4_3_4
New line.ram3015940 phases=4 bus1=2134416.1.2.3.4 bus2=4003015940.1.2.3.4 length=0.017 units=km linecode=CABBTG07_4_3_4
New line.ram3015947 phases=3 bus1=2134416.2.3.4 bus2=4003015947.2.3.4 length=0.017 units=km linecode=CABBTG05_4_2_3
New line.ram3015954 phases=3 bus1=2134416.2.3.4 bus2=4003015954.2.3.4 length=0.017 units=km linecode=CABBTG05_4_2_3
New line.ram3015961 phases=3 bus1=2134416.1.2.4 bus2=4003015961.1.2.4 length=0.017 units=km linecode=CABBTG05_4_2_3
New line.ram3015968 phases=3 bus1=2134437.1.2.4 bus2=4003015968.1.2.4 length=0.017 units=km linecode=CABBTG05_4_2_3
New line.ram3015975 phases=3 bus1=2134437.1.2.4 bus2=4003015975.1.2.4 length=0.017 units=km linecode=CABBTG05_4_2_3
New line.ram3015982 phases=4 bus1=2134437.1.2.3.4 bus2=4003015982.1.2.3.4 length=0.017 units=km linecode=CABBTG07_4_3_4
New line.ram3015989 phases=4 bus1=2134444.1.2.3.4 bus2=4003015989.1.2.3.4 length=0.017 units=km linecode=CABBTG06_4_3_4
New line.ram3015996 phases=3 bus1=2134444.3.1.4 bus2=4003015996.3.1.4 length=0.017 units=km linecode=CABBTG05_4_2_3
New line.ram3016003 phases=4 bus1=2134444.1.2.3.4 bus2=4003016003.1.2.3.4 length=0.017 units=km linecode=CABBTG07_4_3_4
New line.ram3016010 phases=3 bus1=2134444.3.1.4 bus2=4003016010.3.1.4 length=0.017 units=km linecode=CABBTG05_4_2_3
New line.ram3016017 phases=4 bus1=2134451.1.2.3.4 bus2=4003016017.1.2.3.4 length=0.017 units=km linecode=CABBTG07_4_3_4
New line.ram3016024 phases=3 bus1=2134451.3.1.4 bus2=4003016024.3.1.4 length=0.017 units=km linecode=CABBTG05_4_2_3
New line.ram3016038 phases=3 bus1=2134458.2.3.4 bus2=4003016038.2.3.4 length=0.017 units=km linecode=CABBTG05_4_2_3
New line.ram3017543 phases=4 bus1=2135235.1.2.3.4 bus2=4003017543.1.2.3.4 length=0.017 units=km linecode=CABBTG07_4_3_4
New line.ram3017550 phases=3 bus1=2135242.2.3.4 bus2=4003017550.2.3.4 length=0.017 units=km linecode=CABBTG05_4_2_3
New line.ram3017557 phases=3 bus1=2135242.3.1.4 bus2=4003017557.3.1.4 length=0.017 units=km linecode=CABBTG05_4_2_3
New line.ram3017564 phases=3 bus1=2135242.1.2.4 bus2=4003017564.1.2.4 length=0.017 units=km linecode=CABBTG05_4_2_3
New line.ram3017571 phases=3 bus1=2135242.2.3.4 bus2=4003017571.2.3.4 length=0.017 units=km linecode=CABBTG05_4_2_3
New line.ram3017578 phases=3 bus1=2135242.1.2.4 bus2=4003017578.1.2.4 length=0.017 units=km linecode=CABBTG05_4_2_3
New line.ram3017585 phases=4 bus1=2134381.1.2.3.4 bus2=4003017585.1.2.3.4 length=0.017 units=km linecode=CABBTG06_4_3_4
New line.ram3017592 phases=4 bus1=2135256.1.2.3.4 bus2=4003017592.1.2.3.4 length=0.017 units=km linecode=CABBTG07_4_3_4
New line.ram3017599 phases=3 bus1=2135256.1.2.4 bus2=4003017599.1.2.4 length=0.017 units=km linecode=CABBTG05_4_2_3
New line.ram3017606 phases=3 bus1=2135263.1.2.4 bus2=4003017606.1.2.4 length=0.017 units=km linecode=CABBTG05_4_2_3
New line.ram3017613 phases=3 bus1=2135263.1.2.4 bus2=4003017613.1.2.4 length=0.017 units=km linecode=CABBTG05_4_2_3
New line.ram3017620 phases=3 bus1=2135291.1.2.4 bus2=4003017620.1.2.4 length=0.017 units=km linecode=CABBTG05_4_2_3
New line.ram3017627 phases=3 bus1=2135291.3.1.4 bus2=4003017627.3.1.4 length=0.017 units=km linecode=CABBTG05_4_2_3
New line.ram3017634 phases=3 bus1=2135291.2.3.4 bus2=4003017634.2.3.4 length=0.017 units=km linecode=CABBTG05_4_2_3
New line.ram3017641 phases=3 bus1=2135291.3.1.4 bus2=4003017641.3.1.4 length=0.017 units=km linecode=CABBTG05_4_2_3
New line.ram3017648 phases=3 bus1=2135291.2.3.4 bus2=4003017648.2.3.4 length=0.017 units=km linecode=CABBTG05_4_2_3
New line.ram3017655 phases=4 bus1=2135298.1.2.3.4 bus2=4003017655.1.2.3.4 length=0.017 units=km linecode=CABBTG07_4_3_4
New line.ram3017662 phases=3 bus1=2135298.3.1.4 bus2=4003017662.3.1.4 length=0.017 units=km linecode=CABBTG05_4_2_3
New line.ram3017669 phases=3 bus1=2135298.3.1.4 bus2=4003017669.3.1.4 length=0.017 units=km linecode=CABBTG05_4_2_3
New line.ram3017676 phases=3 bus1=2135298.1.2.4 bus2=4003017676.1.2.4 length=0.017 units=km linecode=CABBTG05_4_2_3
New line.ram3017683 phases=4 bus1=2135298.1.2.3.4 bus2=4003017683.1.2.3.4 length=0.017 units=km linecode=CABBTG07_4_3_4
New line.ram3017690 phases=3 bus1=2134444.3.1.4 bus2=4003017690.3.1.4 length=0.017 units=km linecode=CABBTG05_4_2_3
New line.ram3017697 phases=4 bus1=2135305.1.2.3.4 bus2=4003017697.1.2.3.4 length=0.017 units=km linecode=CABBTG06_4_3_4
New line.ram3017704 phases=3 bus1=2135305.2.3.4 bus2=4003017704.2.3.4 length=0.017 units=km linecode=CABBTG05_4_2_3
New line.ram3017711 phases=3 bus1=2135319.1.2.4 bus2=4003017711.1.2.4 length=0.017 units=km linecode=CABBTG05_4_2_3
New line.ram3017718 phases=3 bus1=2135312.1.2.4 bus2=4003017718.1.2.4 length=0.017 units=km linecode=CABBTG05_4_2_3
New line.ram3017725 phases=3 bus1=2135312.1.2.4 bus2=4003017725.1.2.4 length=0.017 units=km linecode=CABBTG05_4_2_3
New line.ram3017732 phases=4 bus1=2135312.1.2.3.4 bus2=4003017732.1.2.3.4 length=0.017 units=km linecode=CABBTG07_4_3_4
New line.ram3017739 phases=2 bus1=2135312.1.4 bus2=4003017739.1.4 length=0.017 units=km linecode=CABBTG01_4_1_2
New line.ram3017746 phases=3 bus1=2135319.1.2.4 bus2=4003017746.1.2.4 length=0.017 units=km linecode=CABBTG05_4_2_3
New line.ram3017753 phases=3 bus1=2135333.1.2.4 bus2=4003017753.1.2.4 length=0.017 units=km linecode=CABBTG05_4_2_3
New line.ram3017760 phases=3 bus1=2135333.1.2.4 bus2=4003017760.1.2.4 length=0.017 units=km linecode=CABBTG05_4_2_3
New line.ram3017767 phases=3 bus1=2135333.2.3.4 bus2=4003017767.2.3.4 length=0.017 units=km linecode=CABBTG05_4_2_3
New line.ram3017774 phases=3 bus1=2135340.2.3.4 bus2=4003017774.2.3.4 length=0.017 units=km linecode=CABBTG05_4_2_3
New line.ram3017837 phases=4 bus1=2139974.1.2.3.4 bus2=4003017837.1.2.3.4 length=0.017 units=km linecode=CABBTG07_4_3_4
New line.ram3020273 phases=3 bus1=2136712.3.1.4 bus2=4003020273.3.1.4 length=0.017 units=km linecode=CABBTG05_4_2_3
New line.ram3020280 phases=3 bus1=2136712.1.2.4 bus2=4003020280.1.2.4 length=0.017 units=km linecode=CABBTG05_4_2_3
New line.ram3020287 phases=3 bus1=2136712.1.2.4 bus2=4003020287.1.2.4 length=0.017 units=km linecode=CABBTG05_4_2_3
New line.ram3020294 phases=3 bus1=2136712.1.2.4 bus2=4003020294.1.2.4 length=0.017 units=km linecode=CABBTG05_4_2_3
New line.ram3020301 phases=4 bus1=2136719.1.2.3.4 bus2=4003020301.1.2.3.4 length=0.017 units=km linecode=CABBTG07_4_3_4
New line.ram3020308 phases=3 bus1=2136719.1.2.4 bus2=4003020308.1.2.4 length=0.017 units=km linecode=CABBTG05_4_2_3
New line.ram3020315 phases=3 bus1=2136719.2.3.4 bus2=4003020315.2.3.4 length=0.017 units=km linecode=CABBTG05_4_2_3
New line.ram3020322 phases=4 bus1=2136719.1.2.3.4 bus2=4003020322.1.2.3.4 length=0.017 units=km linecode=CABBTG07_4_3_4
New line.ram3020329 phases=4 bus1=2136719.1.2.3.4 bus2=4003020329.1.2.3.4 length=0.017 units=km linecode=CABBTG07_4_3_4
New line.ram3020336 phases=3 bus1=2136719.1.2.4 bus2=4003020336.1.2.4 length=0.017 units=km linecode=CABBTG05_4_2_3
New line.ram3020343 phases=4 bus1=2136719.1.2.3.4 bus2=4003020343.1.2.3.4 length=0.017 units=km linecode=CABBTG07_4_3_4
New line.ram3020350 phases=3 bus1=2136726.1.2.4 bus2=4003020350.1.2.4 length=0.017 units=km linecode=CABBTG05_4_2_3
New line.ram3020357 phases=3 bus1=2136726.3.1.4 bus2=4003020357.3.1.4 length=0.017 units=km linecode=CABBTG05_4_2_3
New line.ram3020364 phases=4 bus1=2136726.1.2.3.4 bus2=4003020364.1.2.3.4 length=0.017 units=km linecode=CABBTG07_4_3_4
New line.ram3020371 phases=3 bus1=2136726.3.1.4 bus2=4003020371.3.1.4 length=0.017 units=km linecode=CABBTG05_4_2_3
New line.ram3020378 phases=3 bus1=2136726.3.1.4 bus2=4003020378.3.1.4 length=0.017 units=km linecode=CABBTG05_4_2_3
New line.ram3020385 phases=3 bus1=2136726.3.1.4 bus2=4003020385.3.1.4 length=0.017 units=km linecode=CABBTG05_4_2_3
New line.ram3020392 phases=3 bus1=2136726.2.3.4 bus2=4003020392.2.3.4 length=0.017 units=km linecode=CABBTG05_4_2_3
New line.ram3020399 phases=3 bus1=2136733.2.3.4 bus2=4003020399.2.3.4 length=0.017 units=km linecode=CABBTG05_4_2_3
New line.ram3020406 phases=3 bus1=2136740.2.3.4 bus2=4003020406.2.3.4 length=0.017 units=km linecode=CABBTG05_4_2_3
New line.ram3020413 phases=3 bus1=2136740.1.2.4 bus2=4003020413.1.2.4 length=0.017 units=km linecode=CABBTG05_4_2_3
New line.ram3020420 phases=3 bus1=2136754.3.1.4 bus2=4003020420.3.1.4 length=0.017 units=km linecode=CABBTG05_4_2_3
New line.ram3020427 phases=3 bus1=2136754.3.1.4 bus2=4003020427.3.1.4 length=0.017 units=km linecode=CABBTG05_4_2_3
New line.ram3020434 phases=3 bus1=2136761.1.2.4 bus2=4003020434.1.2.4 length=0.017 units=km linecode=CABBTG05_4_2_3
New line.ram3020441 phases=4 bus1=2136761.1.2.3.4 bus2=4003020441.1.2.3.4 length=0.017 units=km linecode=CABBTG07_4_3_4
New line.ram3020448 phases=4 bus1=2136761.1.2.3.4 bus2=4003020448.1.2.3.4 length=0.017 units=km linecode=CABBTG07_4_3_4
New line.ram3020455 phases=4 bus1=2136761.1.2.3.4 bus2=4003020455.1.2.3.4 length=0.017 units=km linecode=CABBTG07_4_3_4
New line.ram3020462 phases=3 bus1=2136768.2.3.4 bus2=4003020462.2.3.4 length=0.017 units=km linecode=CABBTG05_4_2_3
New line.ram3020469 phases=3 bus1=2136768.2.3.4 bus2=4003020469.2.3.4 length=0.017 units=km linecode=CABBTG05_4_2_3
New line.ram3020476 phases=3 bus1=2136775.2.3.4 bus2=4003020476.2.3.4 length=0.017 units=km linecode=CABBTG05_4_2_3
New line.ram3020483 phases=3 bus1=2136775.3.1.4 bus2=4003020483.3.1.4 length=0.017 units=km linecode=CABBTG05_4_2_3
New line.ram3020490 phases=4 bus1=2136775.1.2.3.4 bus2=4003020490.1.2.3.4 length=0.017 units=km linecode=CABBTG07_4_3_4
New line.ram3020497 phases=3 bus1=2136782.3.1.4 bus2=4003020497.3.1.4 length=0.017 units=km linecode=CABBTG05_4_2_3
New line.ram3020504 phases=4 bus1=2136782.1.2.3.4 bus2=4003020504.1.2.3.4 length=0.017 units=km linecode=CABBTG07_4_3_4
New line.ram3020511 phases=3 bus1=2136782.1.2.4 bus2=4003020511.1.2.4 length=0.017 units=km linecode=CABBTG05_4_2_3
New line.ram3020518 phases=3 bus1=2136789.2.3.4 bus2=4003020518.2.3.4 length=0.017 units=km linecode=CABBTG05_4_2_3
New line.ram3020525 phases=3 bus1=2136789.3.1.4 bus2=4003020525.3.1.4 length=0.017 units=km linecode=CABBTG05_4_2_3
New line.ram3020532 phases=3 bus1=2136789.2.3.4 bus2=4003020532.2.3.4 length=0.017 units=km linecode=CABBTG05_4_2_3
New line.ram3020539 phases=4 bus1=2136789.1.2.3.4 bus2=4003020539.1.2.3.4 length=0.017 units=km linecode=CABBTG07_4_3_4
New line.ram3020546 phases=3 bus1=2136789.1.2.4 bus2=4003020546.1.2.4 length=0.017 units=km linecode=CABBTG05_4_2_3
New line.ram3020553 phases=3 bus1=2136796.1.2.4 bus2=4003020553.1.2.4 length=0.017 units=km linecode=CABBTG05_4_2_3
New line.ram3020560 phases=4 bus1=2136796.1.2.3.4 bus2=4003020560.1.2.3.4 length=0.017 units=km linecode=CABBTG07_4_3_4
New line.ram3020567 phases=3 bus1=2136796.2.3.4 bus2=4003020567.2.3.4 length=0.017 units=km linecode=CABBTG05_4_2_3
New line.ram3020574 phases=3 bus1=2136796.1.2.4 bus2=4003020574.1.2.4 length=0.017 units=km linecode=CABBTG05_4_2_3
New line.ram3020581 phases=3 bus1=2136796.3.1.4 bus2=4003020581.3.1.4 length=0.017 units=km linecode=CABBTG05_4_2_3
New line.ram3020588 phases=3 bus1=2136796.3.1.4 bus2=4003020588.3.1.4 length=0.017 units=km linecode=CABBTG05_4_2_3
New line.ram3020595 phases=3 bus1=2136803.1.2.4 bus2=4003020595.1.2.4 length=0.017 units=km linecode=CABBTG05_4_2_3