New load.bt600194-1 phases=3 bus=1003026853.1.2.3.4 model=2 kv=0.22 kw=4.017681506849316 pf=0.92 conn=delta status=variable vmaxpu=1.5 vminpu=0.92 daily=COM1_1
New load.bt600194-2 phases=3 bus=1003026853.1.2.3.4 model=3 kv=0.22 kw=4.017681506849316 pf=0.92 conn=delta status=variable vmaxpu=1.5 vminpu=0.92 daily=COM1_1
New load.bt600328-1 phases=3 bus=1003028064.1.2.3.4 model=2 kv=0.22 kw=3.6034971461187215 pf=0.92 conn=delta status=variable vmaxpu=1.5 vminpu=0.92 daily=COM1_1
New load.bt600328-2 phases=3 bus=1003028064.1.2.3.4 model=3 kv=0.22 kw=3.6034971461187215 pf=0.92 conn=delta status=variable vmaxpu=1.5 vminpu=0.92 daily=COM1_1
New load.bt600637-1 phases=3 bus=1011382324.1.2.3.4 model=2 kv=0.22 kw=2.9654406392694064 pf=0.92 conn=delta status=variable vmaxpu=1.5 vminpu=0.92 daily=COM1_1
New load.bt600637-2 phases=3 bus=1011382324.1.2.3.4 model=3 kv=0.22 kw=2.9654406392694064 pf=0.92 conn=delta status=variable vmaxpu=1.5 vminpu=0.92 daily=COM1_1
New load.bt600671-1 phases=3 bus=1003044514.1.2.3.4 model=2 kv=0.22 kw=2.3964914383561644 pf=0.92 conn=delta status=variable vmaxpu=1.5 vminpu=0.92 daily=COM1_1
New load.bt600671-2 phases=3 bus=1003044514.1.2.3.4 model=3 kv=0.22 kw=2.3964914383561644 pf=0.92 conn=delta status=variable vmaxpu=1.5 vminpu=0.92 daily=COM1_1
New load.bt602961-1 phases=3 bus=1011382324.1.2.3.4 model=2 kv=0.22 kw=1.2125245433789953 pf=0.92 conn=delta status=variable vmaxpu=1.5 vminpu=0.92 daily=COM1_1
New load.bt602961-2 phases=3 bus=1011382324.1.2.3.4 model=3 kv=0.22 kw=1.2125245433789953 pf=0.92 conn=delta status=variable vmaxpu=1.5 vminpu=0.92 daily=COM1_1
New load.bt607802-1 phases=3 bus=1003028050.1.2.3.4 model=2 kv=0.22 kw=0.4862614155251141 pf=0.92 conn=delta status=variable vmaxpu=1.5 vminpu=0.92 daily=IND1_1
New load.bt607802-2 phases=3 bus=1003028050.1.2.3.4 model=3 kv=0.22 kw=0.4862614155251141 pf=0.92 conn=delta status=variable vmaxpu=1.5 vminpu=0.92 daily=IND1_1
New load.bt613338-1 phases=3 bus=1003036954.1.2.3.4 model=2 kv=0.22 kw=0.4000348173515982 pf=0.92 conn=delta status=variable vmaxpu=1.5 vminpu=0.92 daily=IND1_1
New load.bt613338-2 phases=3 bus=1003036954.1.2.3.4 model=3 kv=0.22 kw=0.4000348173515982 pf=0.92 conn=delta status=variable vmaxpu=1.5 vminpu=0.92 daily=IND1_1
New load.bt615448-1 phases=3 bus=1003037108.1.2.3.4 model=2 kv=0.22 kw=0.33087614155251144 pf=0.92 conn=delta status=variable vmaxpu=1.5 vminpu=0.92 daily=COM1_1
New load.bt615448-2 phases=3 bus=1003037108.1.2.3.4 model=3 kv=0.22 kw=0.33087614155251144 pf=0.92 conn=delta status=variable vmaxpu=1.5 vminpu=0.92 daily=COM1_1
New load.bt615548-1 phases=3 bus=1003017137.1.2.3.4 model=2 kv=0.22 kw=0.3444086757990868 pf=0.92 conn=delta status=variable vmaxpu=1.5 vminpu=0.92 daily=COM1_15
New load.bt615548-2 phases=3 bus=1003017137.1.2.3.4 model=3 kv=0.22 kw=0.3444086757990868 pf=0.92 conn=delta status=variable vmaxpu=1.5 vminpu=0.92 daily=COM1_15
New load.bt620532-1 phases=3 bus=1003027525.1.2.3.4 model=2 kv=0.22 kw=0.028253424657534245 pf=0.92 conn=delta status=variable vmaxpu=1.5 vminpu=0.92 daily=COM1_1
New load.bt620532-2 phases=3 bus=1003027525.1.2.3.4 model=3 kv=0.22 kw=0.028253424657534245 pf=0.92 conn=delta status=variable vmaxpu=1.5 vminpu=0.92 daily=COM1_1
New load.bt622615-1 phases=1 bus=1003037038.3.1.4 model=2 kv=0.22 kw=0.2874366438356164 pf=0.92 conn=delta status=variable vmaxpu=1.5 vminpu=0.92 daily=RES1_1
New load.bt622615-2 phases=1 bus=1003037038.3.1.4 model=3 kv=0.22 kw=0.2874366438356164 pf=0.92 conn=delta status=variable vmaxpu=1.5 vminpu=0.92 daily=RES1_1
New load.bt624233-1 phases=1 bus=1003036884.2.3.4 model=2 kv=0.22 kw=0.3129389269406393 pf=0.92 conn=delta status=variable vmaxpu=1.5 vminpu=0.92 daily=RES1_1
New load.bt624233-2 phases=1 bus=1003036884.2.3.4 model=3 kv=0.22 kw=0.3129389269406393 pf=0.92 conn=delta status=variable vmaxpu=1.5 vminpu=0.92 daily=RES1_1
New load.bt624407-1 phases=1 bus=1003023801.1.2.4 model=2 kv=0.22 kw=0.07081392694063927 pf=0.92 conn=delta status=variable vmaxpu=1.5 vminpu=0.92 daily=COM1_1
New load.bt624407-2 phases=1 bus=1003023801.1.2.4 model=3 kv=0.22 kw=0.07081392694063927 pf=0.92 conn=delta status=variable vmaxpu=1.5 vminpu=0.92 daily=COM1_1
New load.bt626793-1 phases=3 bus=1003023808.1.2.3.4 model=2 kv=0.22 kw=0.8111946347031964 pf=0.92 conn=delta status=variable vmaxpu=1.5 vminpu=0.92 daily=COM1_1
New load.bt626793-2 phases=3 bus=1003023808.1.2.3.4 model=3 kv=0.22 kw=0.8111946347031964 pf=0.92 conn=delta status=variable vmaxpu=1.5 vminpu=0.92 daily=COM1_1
New load.bt626889-1 phases=1 bus=1003029002.2.3.4 model=2 kv=0.22 kw=0.23162956621004566 pf=0.92 conn=delta status=variable vmaxpu=1.5 vminpu=0.92 daily=RES1_1
New load.bt626889-2 phases=1 bus=1003029002.2.3.4 model=3 kv=0.22 kw=0.23162956621004566 pf=0.92 conn=delta status=variable vmaxpu=1.5 vminpu=0.92 daily=RES1_1
New load.bt627655-1 phases=3 bus=1011382324.1.2.3.4 model=2 kv=0.22 kw=0.2903881278538813 pf=0.92 conn=delta status=variable vmaxpu=1.5 vminpu=0.92 daily=COM1_1
New load.bt627655-2 phases=3 bus=1011382324.1.2.3.4 model=3 kv=0.22 kw=0.2903881278538813 pf=0.92 conn=delta status=variable vmaxpu=1.5 vminpu=0.92 daily=COM1_1
New load.bt635257-1 phases=1 bus=1003036968.2.3.4 model=2 kv=0.22 kw=0.23884132420091325 pf=0.92 conn=delta status=variable vmaxpu=1.5 vminpu=0.92 daily=RES1_1
New load.bt635257-2 phases=1 bus=1003036968.2.3.4 model=3 kv=0.22 kw=0.23884132420091325 pf=0.92 conn=delta status=variable vmaxpu=1.5 vminpu=0.92 daily=RES1_1
New load.bt636116-1 phases=3 bus=1003028106.1.2.3.4 model=2 kv=0.22 kw=0.18457990867579907 pf=0.92 conn=delta status=variable vmaxpu=1.5 vminpu=0.92 daily=IND1_1
New load.bt636116-2 phases=3 bus=1003028106.1.2.3.4 model=3 kv=0.22 kw=0.18457990867579907 pf=0.92 conn=delta status=variable vmaxpu=1.5 vminpu=0.92 daily=IND1_1
New load.bt651319-1 phases=3 bus=1003026846.1.2.3.4 model=2 kv=0.22 kw=0.16187100456621006 pf=0.92 conn=delta status=variable vmaxpu=1.5 vminpu=0.92 daily=COM1_1
New load.bt651319-2 phases=3 bus=1003026846.1.2.3.4 model=3 kv=0.22 kw=0.16187100456621006 pf=0.92 conn=delta status=variable vmaxpu=1.5 vminpu=0.92 daily=COM1_1
New load.bt654141-1 phases=3 bus=1003044640.1.2.3.4 model=2 kv=0.22 kw=0.18247488584474886 pf=0.92 conn=delta status=variable vmaxpu=1.5 vminpu=0.92 daily=RES1_1
New load.bt654141-2 phases=3 bus=1003044640.1.2.3.4 model=3 kv=0.22 kw=0.18247488584474886 pf=0.92 conn=delta status=variable vmaxpu=1.5 vminpu=0.92 daily=RES1_1
New load.bt655687-1 phases=3 bus=1003028071.1.2.3.4 model=2 kv=0.22 kw=0.21325799086757993 pf=0.92 conn=delta status=variable vmaxpu=1.5 vminpu=0.92 daily=COM1_1
New load.bt655687-2 phases=3 bus=1003028071.1.2.3.4 model=3 kv=0.22 kw=0.21325799086757993 pf=0.92 conn=delta status=variable vmaxpu=1.5 vminpu=0.92 daily=COM1_1
New load.bt655797-1 phases=3 bus=1003028134.1.2.3.4 model=2 kv=0.22 kw=0.14494577625570776 pf=0.92 conn=delta status=variable vmaxpu=1.5 vminpu=0.92 daily=COM1_1
New load.bt655797-2 phases=3 bus=1003028134.1.2.3.4 model=3 kv=0.22 kw=0.14494577625570776 pf=0.92 conn=delta status=variable vmaxpu=1.5 vminpu=0.92 daily=COM1_1
New load.bt657489-1 phases=3 bus=1003028078.1.2.3.4 model=2 kv=0.22 kw=0.18295890410958904 pf=0.92 conn=delta status=variable vmaxpu=1.5 vminpu=0.92 daily=RES1_1
New load.bt657489-2 phases=3 bus=1003028078.1.2.3.4 model=3 kv=0.22 kw=0.18295890410958904 pf=0.92 conn=delta status=variable vmaxpu=1.5 vminpu=0.92 daily=RES1_1
New load.bt657881-1 phases=1 bus=1003028015.3.1.4 model=2 kv=0.22 kw=0.20063527397260272 pf=0.92 conn=delta status=variable vmaxpu=1.5 vminpu=0.92 daily=RES1_1
New load.bt657881-2 phases=1 bus=1003028015.3.1.4 model=3 kv=0.22 kw=0.20063527397260272 pf=0.92 conn=delta status=variable vmaxpu=1.5 vminpu=0.92 daily=RES1_1
New load.bt660854-1 phases=3 bus=1003023857.1.2.3.4 model=2 kv=0.22 kw=0.19803310502283106 pf=0.92 conn=delta status=variable vmaxpu=1.5 vminpu=0.92 daily=IND1_1
New load.bt660854-2 phases=3 bus=1003023857.1.2.3.4 model=3 kv=0.22 kw=0.19803310502283106 pf=0.92 conn=delta status=variable vmaxpu=1.5 vminpu=0.92 daily=IND1_1
New load.bt679351-1 phases=1 bus=1003028043.2.3.4 model=2 kv=0.22 kw=0.08257819634703197 pf=0.92 conn=delta status=variable vmaxpu=1.5 vminpu=0.92 daily=RES1_1
New load.bt679351-2 phases=1 bus=1003028043.2.3.4 model=3 kv=0.22 kw=0.08257819634703197 pf=0.92 conn=delta status=variable vmaxpu=1.5 vminpu=0.92 daily=RES1_1
New load.bt691474-1 phases=3 bus=1003029044.1.2.3.4 model=2 kv=0.22 kw=0.1210519406392694 pf=0.92 conn=delta status=variable vmaxpu=1.5 vminpu=0.92 daily=RES1_1
New load.bt691474-2 phases=3 bus=1003029044.1.2.3.4 model=3 kv=0.22 kw=0.1210519406392694 pf=0.92 conn=delta status=variable vmaxpu=1.5 vminpu=0.92 daily=RES1_1
New load.bt691794-1 phases=3 bus=1003026881.1.2.3.4 model=2 kv=0.22 kw=0.24915582191780822 pf=0.92 conn=delta status=variable vmaxpu=1.5 vminpu=0.92 daily=IND1_1
New load.bt691794-2 phases=3 bus=1003026881.1.2.3.4 model=3 kv=0.22 kw=0.24915582191780822 pf=0.92 conn=delta status=variable vmaxpu=1.5 vminpu=0.92 daily=IND1_1
New load.bt693548-1 phases=1 bus=1003037066.1.2.4 model=2 kv=0.22 kw=0.14224885844748858 pf=0.92 conn=delta status=variable vmaxpu=1.5 vminpu=0.92 daily=RES1_1
New load.bt693548-2 phases=1 bus=1003037066.1.2.4 model=3 kv=0.22 kw=0.14224885844748858 pf=0.92 conn=delta status=variable vmaxpu=1.5 vminpu=0.92 daily=RES1_1
New load.bt694843-1 phases=3 bus=1003036807.1.2.3.4 model=2 kv=0.22 kw=0.113925799086758 pf=0.92 conn=delta status=variable vmaxpu=1.5 vminpu=0.92 daily=COM1_1
New load.bt694843-2 phases=3 bus=1003036807.1.2.3.4 model=3 kv=0.22 kw=0.113925799086758 pf=0.92 conn=delta status=variable vmaxpu=1.5 vminpu=0.92 daily=COM1_1
New load.bt713183-1 phases=1 bus=1003029079.1.2.4 model=2 kv=0.22 kw=0.13754965753424656 pf=0.92 conn=delta status=variable vmaxpu=1.5 vminpu=0.92 daily=RES1_1
New load.bt713183-2 phases=1 bus=1003029079.1.2.4 model=3 kv=0.22 kw=0.13754965753424656 pf=0.92 conn=delta status=variable vmaxpu=1.5 vminpu=0.92 daily=RES1_1
New load.bt717835-1 phases=1 bus=1003023927.2.3.4 model=2 kv=0.22 kw=0.11853481735159817 pf=0.92 conn=delta status=variable vmaxpu=1.5 vminpu=0.92 daily=RES1_1
New load.bt717835-2 phases=1 bus=1003023927.2.3.4 model=3 kv=0.22 kw=0.11853481735159817 pf=0.92 conn=delta status=variable vmaxpu=1.5 vminpu=0.92 daily=RES1_1
New load.bt722010-1 phases=1 bus=1003029037.3.1.4 model=2 kv=0.22 kw=0.14040810502283105 pf=0.92 conn=delta status=variable vmaxpu=1.5 vminpu=0.92 daily=RES1_1
New load.bt722010-2 phases=1 bus=1003029037.3.1.4 model=3 kv=0.22 kw=0.14040810502283105 pf=0.92 conn=delta status=variable vmaxpu=1.5 vminpu=0.92 daily=RES1_1
New load.bt729515-1 phases=1 bus=1003028967.1.2.4 model=2 kv=0.22 kw=0.141435502283105 pf=0.92 conn=delta status=variable vmaxpu=1.5 vminpu=0.92 daily=RES1_1
New load.bt729515-2 phases=1 bus=1003028967.1.2.4 model=3 kv=0.22 kw=0.141435502283105 pf=0.92 conn=delta status=variable vmaxpu=1.5 vminpu=0.92 daily=RES1_1
New load.bt733966-1 phases=3 bus=1003044675.1.2.3.4 model=2 kv=0.22 kw=0.08498630136986302 pf=0.92 conn=delta status=variable vmaxpu=1.5 vminpu=0.92 daily=COM1_1
New load.bt733966-2 phases=3 bus=1003044675.1.2.3.4 model=3 kv=0.22 kw=0.08498630136986302 pf=0.92 conn=delta status=variable vmaxpu=1.5 vminpu=0.92 daily=COM1_1
New load.bt740523-1 phases=1 bus=1003028981.2.3.4 model=2 kv=0.22 kw=0.16788641552511419 pf=0.92 conn=delta status=variable vmaxpu=1.5 vminpu=0.92 daily=COM1_1
New load.bt740523-2 phases=1 bus=1003028981.2.3.4 model=3 kv=0.22 kw=0.16788641552511419 pf=0.92 conn=delta status=variable vmaxpu=1.5 vminpu=0.92 daily=COM1_1
New load.bt742168-1 phases=1 bus=1003028036.1.2.4 model=2 kv=0.22 kw=0.12444349315068493 pf=0.92 conn=delta status=variable vmaxpu=1.5 vminpu=0.92 daily=RES1_1
New load.bt742168-2 phases=1 bus=1003028036.1.2.4 model=3 kv=0.22 kw=0.12444349315068493 pf=0.92 conn=delta status=variable vmaxpu=1.5 vminpu=0.92 daily=RES1_1
New load.bt745606-1 phases=1 bus=1003023829.2.3.4 model=2 kv=0.22 kw=0.10832705479452055 pf=0.92 conn=delta status=variable vmaxpu=1.5 vminpu=0.92 daily=COM1_1
New load.bt745606-2 phases=1 bus=1003023829.2.3.4 model=3 kv=0.22 kw=0.10832705479452055 pf=0.92 conn=delta status=variable vmaxpu=1.5 vminpu=0.92 daily=COM1_1
New load.bt753359-1 phases=1 bus=1003028092.1.2.4 model=2 kv=0.22 kw=0.14604851598173518 pf=0.92 conn=delta status=variable vmaxpu=1.5 vminpu=0.92 daily=RES1_1
New load.bt753359-2 phases=1 bus=1003028092.1.2.4 model=3 kv=0.22 kw=0.14604851598173518 pf=0.92 conn=delta status=variable vmaxpu=1.5 vminpu=0.92 daily=RES1_1
New load.bt756381-1 phases=1 bus=1003008191.1.2.4 model=2 kv=0.22 kw=0.11297773972602738 pf=0.92 conn=delta status=variable vmaxpu=1.5 vminpu=0.92 daily=RES1_11
New load.bt756381-2 phases=1 bus=1003008191.1.2.4 model=3 kv=0.22 kw=0.11297773972602738 pf=0.92 conn=delta status=variable vmaxpu=1.5 vminpu=0.92 daily=RES1_11
New load.bt760915-1 phases=3 bus=1003008198.1.2.3.4 model=2 kv=0.22 kw=0.10860559360730594 pf=0.92 conn=delta status=variable vmaxpu=1.5 vminpu=0.92 daily=RES1_1
New load.bt760915-2 phases=3 bus=1003008198.1.2.3.4 model=3 kv=0.22 kw=0.10860559360730594 pf=0.92 conn=delta status=variable vmaxpu=1.5 vminpu=0.92 daily=RES1_1
New load.bt761095-1 phases=3 bus=1003023850.1.2.3.4 model=2 kv=0.22 kw=0.1002351598173516 pf=0.92 conn=delta status=variable vmaxpu=1.5 vminpu=0.92 daily=IND1_1
New load.bt761095-2 phases=3 bus=1003023850.1.2.3.4 model=3 kv=0.22 kw=0.1002351598173516 pf=0.92 conn=delta status=variable vmaxpu=1.5 vminpu=0.92 daily=IND1_1
New load.bt761273-1 phases=1 bus=1003036940.1.2.4 model=2 kv=0.22 kw=0.11867922374429223 pf=0.92 conn=delta status=variable vmaxpu=1.5 vminpu=0.92 daily=RES1_1
New load.bt761273-2 phases=1 bus=1003036940.1.2.4 model=3 kv=0.22 kw=0.11867922374429223 pf=0.92 conn=delta status=variable vmaxpu=1.5 vminpu=0.92 daily=RES1_1
New load.bt763787-1 phases=1 bus=1003044633.2.3.4 model=2 kv=0.22 kw=0.053761986301369864 pf=0.92 conn=delta status=variable vmaxpu=1.5 vminpu=0.92 daily=RES1_1
New load.bt763787-2 phases=1 bus=1003044633.2.3.4 model=3 kv=0.22 kw=0.053761986301369864 pf=0.92 conn=delta status=variable vmaxpu=1.5 vminpu=0.92 daily=RES1_1
New load.bt765094-1 phases=1 bus=1003008184.1.2.4 model=2 kv=0.22 kw=0.10247317351598174 pf=0.92 conn=delta status=variable vmaxpu=1.5 vminpu=0.92 daily=RES1_11
New load.bt765094-2 phases=1 bus=1003008184.1.2.4 model=3 kv=0.22 kw=0.10247317351598174 pf=0.92 conn=delta status=variable vmaxpu=1.5 vminpu=0.92 daily=RES1_11
New load.bt775347-1 phases=3 bus=1003044724.1.2.3.4 model=2 kv=0.22 kw=0.23148573059360728 pf=0.92 conn=delta status=variable vmaxpu=1.5 vminpu=0.92 daily=COM1_1
New load.bt775347-2 phases=3 bus=1003044724.1.2.3.4 model=3 kv=0.22 kw=0.23148573059360728 pf=0.92 conn=delta status=variable vmaxpu=1.5 vminpu=0.92 daily=COM1_1
New load.bt784000-1 phases=1 bus=1003037052.3.1.4 model=2 kv=0.22 kw=0.09105707762557078 pf=0.92 conn=delta status=variable vmaxpu=1.5 vminpu=0.92 daily=RES1_1
New load.bt784000-2 phases=1 bus=1003037052.3.1.4 model=3 kv=0.22 kw=0.09105707762557078 pf=0.92 conn=delta status=variable vmaxpu=1.5 vminpu=0.92 daily=RES1_1
New load.bt799025-1 phases=3 bus=1003008198.1.2.3.4 model=2 kv=0.22 kw=0.05486986301369862 pf=0.92 conn=delta status=variable vmaxpu=1.5 vminpu=0.92 daily=RES1_1
New load.bt799025-2 phases=3 bus=1003008198.1.2.3.4 model=3 kv=0.22 kw=0.05486986301369862 pf=0.92 conn=delta status=variable vmaxpu=1.5 vminpu=0.92 daily=RES1_1
New load.bt799873-1 phases=1 bus=1003029023.1.2.4 model=2 kv=0.22 kw=0.09098173515981733 pf=0.92 conn=delta status=variable vmaxpu=1.5 vminpu=0.92 daily=RES1_1
New load.bt799873-2 phases=1 bus=1003029023.1.2.4 model=3 kv=0.22 kw=0.09098173515981733 pf=0.92 conn=delta status=variable vmaxpu=1.5 vminpu=0.92 daily=RES1_1
New load.bt806491-1 phases=1 bus=1003026888.1.2.4 model=2 kv=0.22 kw=0.0930582191780822 pf=0.92 conn=delta status=variable vmaxpu=1.5 vminpu=0.92 daily=RES1_1
New load.bt806491-2 phases=1 bus=1003026888.1.2.4 model=3 kv=0.22 kw=0.0930582191780822 pf=0.92 conn=delta status=variable vmaxpu=1.5 vminpu=0.92 daily=RES1_1
New load.bt807962-1 phases=1 bus=1003008177.2.3.4 model=2 kv=0.22 kw=0.08428082191780821 pf=0.92 conn=delta status=variable vmaxpu=1.5 vminpu=0.92 daily=RES1_11
New load.bt807962-2 phases=1 bus=1003008177.2.3.4 model=3 kv=0.22 kw=0.08428082191780821 pf=0.92 conn=delta status=variable vmaxpu=1.5 vminpu=0.92 daily=RES1_11
New load.bt809553-1 phases=1 bus=1003036898.1.2.4 model=2 kv=0.22 kw=0.102962899543379 pf=0.92 conn=delta status=variable vmaxpu=1.5 vminpu=0.92 daily=RES1_1
New load.bt809553-2 phases=1 bus=1003036898.1.2.4 model=3 kv=0.22 kw=0.102962899543379 pf=0.92 conn=delta status=variable vmaxpu=1.5 vminpu=0.92 daily=RES1_1
New load.bt811057-1 phases=1 bus=1003029009.1.2.4 model=2 kv=0.22 kw=0.09732191780821917 pf=0.92 conn=delta status=variable vmaxpu=1.5 vminpu=0.92 daily=RES1_1
New load.bt811057-2 phases=1 bus=1003029009.1.2.4 model=3 kv=0.22 kw=0.09732191780821917 pf=0.92 conn=delta status=variable vmaxpu=1.5 vminpu=0.92 daily=RES1_1
New load.bt822644-1 phases=1 bus=1003023801.1.2.4 model=2 kv=0.22 kw=0.06601369863013698 pf=0.92 conn=delta status=variable vmaxpu=1.5 vminpu=0.92 daily=RES1_1
New load.bt822644-2 phases=1 bus=1003023801.1.2.4 model=3 kv=0.22 kw=0.06601369863013698 pf=0.92 conn=delta status=variable vmaxpu=1.5 vminpu=0.92 daily=RES1_1
New load.bt825117-1 phases=1 bus=1003023920.1.2.4 model=2 kv=0.22 kw=0.08935159817351597 pf=0.92 conn=delta status=variable vmaxpu=1.5 vminpu=0.92 daily=RES1_1
New load.bt825117-2 phases=1 bus=1003023920.1.2.4 model=3 kv=0.22 kw=0.08935159817351597 pf=0.92 conn=delta status=variable vmaxpu=1.5 vminpu=0.92 daily=RES1_1
New load.bt831367-1 phases=1 bus=1003044647.1.2.4 model=2 kv=0.22 kw=0.0757054794520548 pf=0.92 conn=delta status=variable vmaxpu=1.5 vminpu=0.92 daily=RES1_1
New load.bt831367-2 phases=1 bus=1003044647.1.2.4 model=3 kv=0.22 kw=0.0757054794520548 pf=0.92 conn=delta status=variable vmaxpu=1.5 vminpu=0.92 daily=RES1_1
New load.bt833331-1 phases=1 bus=1003037094.2.4 model=2 kv=0.127 kw=0.08204052511415526 pf=0.92 conn=wye status=variable vmaxpu=1.5 vminpu=0.92 daily=RES1_1
New load.bt833331-2 phases=1 bus=1003037094.2.4 model=3 kv=0.127 kw=0.08204052511415526 pf=0.92 conn=wye status=variable vmaxpu=1.5 vminpu=0.92 daily=RES1_1
New load.bt837889-1 phases=1 bus=1003028960.3.1.4 model=2 kv=0.22 kw=0.10170719178082192 pf=0.92 conn=delta status=variable vmaxpu=1.5 vminpu=0.92 daily=RES1_1
New load.bt837889-2 phases=1 bus=1003028960.3.1.4 model=3 kv=0.22 kw=0.10170719178082192 pf=0.92 conn=delta status=variable vmaxpu=1.5 vminpu=0.92 daily=RES1_1
New load.bt845999-1 phases=3 bus=1003026832.1.2.3.4 model=2 kv=0.22 kw=0.06989897260273974 pf=0.92 conn=delta status=variable vmaxpu=1.5 vminpu=0.92 daily=IND1_1
New load.bt845999-2 phases=3 bus=1003026832.1.2.3.4 model=3 kv=0.22 kw=0.06989897260273974 pf=0.92 conn=delta status=variable vmaxpu=1.5 vminpu=0.92 daily=IND1_1
New load.bt860897-1 phases=1 bus=1003037122.2.3.4 model=2 kv=0.22 kw=0.07420376712328768 pf=0.92 conn=delta status=variable vmaxpu=1.5 vminpu=0.92 daily=RES1_1
New load.bt860897-2 phases=1 bus=1003037122.2.3.4 model=3 kv=0.22 kw=0.07420376712328768 pf=0.92 conn=delta status=variable vmaxpu=1.5 vminpu=0.92 daily=RES1_1
New load.bt863503-1 phases=1 bus=1003028099.2.3.4 model=2 kv=0.22 kw=0.07381563926940637 pf=0.92 conn=delta status=variable vmaxpu=1.5 vminpu=0.92 daily=RES1_1
New load.bt863503-2 phases=1 bus=1003028099.2.3.4 model=3 kv=0.22 kw=0.07381563926940637 pf=0.92 conn=delta status=variable vmaxpu=1.5 vminpu=0.92 daily=RES1_1
New load.bt865773-1 phases=1 bus=1003037094.2.4 model=2 kv=0.127 kw=0.06560159817351598 pf=0.92 conn=wye status=variable vmaxpu=1.5 vminpu=0.92 daily=RES1_1
New load.bt865773-2 phases=1 bus=1003037094.2.4 model=3 kv=0.127 kw=0.06560159817351598 pf=0.92 conn=wye status=variable vmaxpu=1.5 vminpu=0.92 daily=RES1_1
New load.bt871436-1 phases=1 bus=1003036926.2.3.4 model=2 kv=0.22 kw=0.0716929223744292 pf=0.92 conn=delta status=variable vmaxpu=1.5 vminpu=0.92 daily=RES1_1
New load.bt871436-2 phases=1 bus=1003036926.2.3.4 model=3 kv=0.22 kw=0.0716929223744292 pf=0.92 conn=delta status=variable vmaxpu=1.5 vminpu=0.92 daily=RES1_1
New load.bt873024-1 phases=1 bus=1003036814.1.2.4 model=2 kv=0.22 kw=0.07033732876712329 pf=0.92 conn=delta status=variable vmaxpu=1.5 vminpu=0.92 daily=RES1_1
New load.bt873024-2 phases=1 bus=1003036814.1.2.4 model=3 kv=0.22 kw=0.07033732876712329 pf=0.92 conn=delta status=variable vmaxpu=1.5 vminpu=0.92 daily=RES1_1
New load.bt876319-1 phases=1 bus=1003036849.3.1.4 model=2 kv=0.22 kw=0.0688681506849315 pf=0.92 conn=delta status=variable vmaxpu=1.5 vminpu=0.92 daily=RES1_1
New load.bt876319-2 phases=1 bus=1003036849.3.1.4 model=3 kv=0.22 kw=0.0688681506849315 pf=0.92 conn=delta status=variable vmaxpu=1.5 vminpu=0.92 daily=RES1_1
New load.bt884784-1 phases=1 bus=1003028974.1.2.4 model=2 kv=0.22 kw=0.06667180365296803 pf=0.92 conn=delta status=variable vmaxpu=1.5 vminpu=0.92 daily=RES1_1
New load.bt884784-2 phases=1 bus=1003028974.1.2.4 model=3 kv=0.22 kw=0.06667180365296803 pf=0.92 conn=delta status=variable vmaxpu=1.5 vminpu=0.92 daily=RES1_1
New load.bt889691-1 phases=1 bus=1003023836.2.3.4 model=2 kv=0.22 kw=0.09551826484018265 pf=0.92 conn=delta status=variable vmaxpu=1.5 vminpu=0.92 daily=COM1_1
New load.bt889691-2 phases=1 bus=1003023836.2.3.4 model=3 kv=0.22 kw=0.09551826484018265 pf=0.92 conn=delta status=variable vmaxpu=1.5 vminpu=0.92 daily=COM1_1
New load.bt890772-1 phases=1 bus=1003036863.2.3.4 model=2 kv=0.22 kw=0.06769349315068493 pf=0.92 conn=delta status=variable vmaxpu=1.5 vminpu=0.92 daily=RES1_1
New load.bt890772-2 phases=1 bus=1003036863.2.3.4 model=3 kv=0.22 kw=0.06769349315068493 pf=0.92 conn=delta status=variable vmaxpu=1.5 vminpu=0.92 daily=RES1_1
New load.bt893595-1 phases=1 bus=1003028946.1.2.4 model=2 kv=0.22 kw=0.1185279680365297 pf=0.92 conn=delta status=variable vmaxpu=1.5 vminpu=0.92 daily=RES1_1
New load.bt893595-2 phases=1 bus=1003028946.1.2.4 model=3 kv=0.22 kw=0.1185279680365297 pf=0.92 conn=delta status=variable vmaxpu=1.5 vminpu=0.92 daily=RES1_1
New load.bt896474-1 phases=1 bus=1003037073.2.3.4 model=2 kv=0.22 kw=0.06382420091324201 pf=0.92 conn=delta status=variable vmaxpu=1.5 vminpu=0.92 daily=RES1_1
New load.bt896474-2 phases=1 bus=1003037073.2.3.4 model=3 kv=0.22 kw=0.06382420091324201 pf=0.92 conn=delta status=variable vmaxpu=1.5 vminpu=0.92 daily=RES1_1
New load.bt912056-1 phases=3 bus=1003036989.1.2.3.4 model=2 kv=0.22 kw=0.05945034246575342 pf=0.92 conn=delta status=variable vmaxpu=1.5 vminpu=0.92 daily=RES1_1
New load.bt912056-2 phases=3 bus=1003036989.1.2.3.4 model=3 kv=0.22 kw=0.05945034246575342 pf=0.92 conn=delta status=variable vmaxpu=1.5 vminpu=0.92 daily=RES1_1
New load.bt931001-1 phases=3 bus=1003023899.1.2.3.4 model=2 kv=0.22 kw=0.05888755707762557 pf=0.92 conn=delta status=variable vmaxpu=1.5 vminpu=0.92 daily=COM1_1
New load.bt931001-2 phases=3 bus=1003023899.1.2.3.4 model=3 kv=0.22 kw=0.05888755707762557 pf=0.92 conn=delta status=variable vmaxpu=1.5 vminpu=0.92 daily=COM1_1
New load.bt971784-1 phases=3 bus=1003044675.1.2.3.4 model=2 kv=0.22 kw=0.040755707762557075 pf=0.92 conn=delta status=variable vmaxpu=1.5 vminpu=0.92 daily=RES1_1
New load.bt971784-2 phases=3 bus=1003044675.1.2.3.4 model=3 kv=0.22 kw=0.040755707762557075 pf=0.92 conn=delta status=variable vmaxpu=1.5 vminpu=0.92 daily=RES1_1
New load.bt972995-1 phases=3 bus=1003044535.1.2.3.4 model=2 kv=0.22 kw=0.017123858447488583 pf=0.92 conn=delta status=variable vmaxpu=1.5 vminpu=0.92 daily=COM1_1
New load.bt972995-2 phases=3 bus=1003044535.1.2.3.4 model=3 kv=0.22 kw=0.017123858447488583 pf=0.92 conn=delta status=variable vmaxpu=1.5 vminpu=0.92 daily=COM1_1
New load.bt1012057-1 phases=3 bus=1003028057.1.2.3.4 model=2 kv=0.22 kw=0.02207534246575343 pf=0.92 conn=delta status=variable vmaxpu=1.5 vminpu=0.92 daily=IND1_1
New load.bt1012057-2 phases=3 bus=1003028057.1.2.3.4 model=3 kv=0.22 kw=0.02207534246575343 pf=0.92 conn=delta status=variable vmaxpu=1.5 vminpu=0.92 daily=IND1_1
New load.bt1015636-1 phases=1 bus=1003028995.2.3.4 model=2 kv=0.22 kw=0.029109018264840185 pf=0.92 conn=delta status=variable vmaxpu=1.5 vminpu=0.92 daily=RES1_1
New load.bt1015636-2 phases=1 bus=1003028995.2.3.4 model=3 kv=0.22 kw=0.029109018264840185 pf=0.92 conn=delta status=variable vmaxpu=1.5 vminpu=0.92 daily=RES1_1
New load.bt1018782-1 phases=1 bus=1003029016.1.2.4 model=2 kv=0.22 kw=0.10799600456621006 pf=0.92 conn=delta status=variable vmaxpu=1.5 vminpu=0.92 daily=RES1_1
New load.bt1018782-2 phases=1 bus=1003029016.1.2.4 model=3 kv=0.22 kw=0.10799600456621006 pf=0.92 conn=delta status=variable vmaxpu=1.5 vminpu=0.92 daily=RES1_1
New load.bt1023327-1 phases=3 bus=1003008198.1.2.3.4 model=2 kv=0.22 kw=0.008719178082191782 pf=0.92 conn=delta status=variable vmaxpu=1.5 vminpu=0.92 daily=RES1_1
New load.bt1023327-2 phases=3 bus=1003008198.1.2.3.4 model=3 kv=0.22 kw=0.008719178082191782 pf=0.92 conn=delta status=variable vmaxpu=1.5 vminpu=0.92 daily=RES1_1
New load.bt1032462-1 phases=3 bus=1003044724.1.2.3.4 model=2 kv=0.22 kw=0.02707248858447488 pf=0.92 conn=delta status=variable vmaxpu=1.5 vminpu=0.92 daily=COM1_1
New load.bt1032462-2 phases=3 bus=1003044724.1.2.3.4 model=3 kv=0.22 kw=0.02707248858447488 pf=0.92 conn=delta status=variable vmaxpu=1.5 vminpu=0.92 daily=COM1_1
New load.bt1037141-1 phases=3 bus=1003044675.1.2.3.4 model=2 kv=0.22 kw=0.012172945205479454 pf=0.92 conn=delta status=variable vmaxpu=1.5 vminpu=0.92 daily=RES1_1
New load.bt1037141-2 phases=3 bus=1003044675.1.2.3.4 model=3 kv=0.22 kw=0.012172945205479454 pf=0.92 conn=delta status=variable vmaxpu=1.5 vminpu=0.92 daily=RES1_1
New load.bt1045444-1 phases=3 bus=1003044675.1.2.3.4 model=2 kv=0.22 kw=0.0015388127853881279 pf=0.92 conn=delta status=variable vmaxpu=1.5 vminpu=0.92 daily=RES1_1
New load.bt1045444-2 phases=3 bus=1003044675.1.2.3.4 model=3 kv=0.22 kw=0.0015388127853881279 pf=0.92 conn=delta status=variable vmaxpu=1.5 vminpu=0.92 daily=RES1_1
New load.bt1050665-1 phases=1 bus=1003036940.1.2.4 model=2 kv=0.22 kw=0.008142123287671233 pf=0.92 conn=delta status=variable vmaxpu=1.5 vminpu=0.92 daily=RES1_1
New load.bt1050665-2 phases=1 bus=1003036940.1.2.4 model=3 kv=0.22 kw=0.008142123287671233 pf=0.92 conn=delta status=variable vmaxpu=1.5 vminpu=0.92 daily=RES1_1
New load.bt1211425-1 phases=1 bus=1003346753.1.4 model=2 kv=0.127 kw=0.09943664383561644 pf=0.92 conn=wye status=variable vmaxpu=1.5 vminpu=0.92 daily=RES1_2
New load.bt1211425-2 phases=1 bus=1003346753.1.4 model=3 kv=0.127 kw=0.09943664383561644 pf=0.92 conn=wye status=variable vmaxpu=1.5 vminpu=0.92 daily=RES1_2
New load.bt1211955-1 phases=3 bus=1003100395.1.2.3.4 model=2 kv=0.22 kw=0.09297431506849316 pf=0.92 conn=delta status=variable vmaxpu=1.5 vminpu=0.92 daily=RES1_2
New load.bt1211955-2 phases=3 bus=1003100395.1.2.3.4 model=3 kv=0.22 kw=0.09297431506849316 pf=0.92 conn=delta status=variable vmaxpu=1.5 vminpu=0.92 daily=RES1_2
New load.bt1211959-1 phases=3 bus=1003065122.1.2.3.4 model=2 kv=0.22 kw=0.09123344748858446 pf=0.92 conn=delta status=variable vmaxpu=1.5 vminpu=0.92 daily=RES1_2
New load.bt1211959-2 phases=3 bus=1003065122.1.2.3.4 model=3 kv=0.22 kw=0.09123344748858446 pf=0.92 conn=delta status=variable vmaxpu=1.5 vminpu=0.92 daily=RES1_2
New load.bt1215479-1 phases=1 bus=1003346711.2.3.4 model=2 kv=0.22 kw=0.08807305936073061 pf=0.92 conn=delta status=variable vmaxpu=1.5 vminpu=0.92 daily=COM1_4
New load.bt1215479-2 phases=1 bus=1003346711.2.3.4 model=3 kv=0.22 kw=0.08807305936073061 pf=0.92 conn=delta status=variable vmaxpu=1.5 vminpu=0.92 daily=COM1_4
New load.bt1216253-1 phases=3 bus=1003065108.1.2.3.4 model=2 kv=0.22 kw=0.09087956621004566 pf=0.92 conn=delta status=variable vmaxpu=1.5 vminpu=0.92 daily=RES1_2
New load.bt1216253-2 phases=3 bus=1003065108.1.2.3.4 model=3 kv=0.22 kw=0.09087956621004566 pf=0.92 conn=delta status=variable vmaxpu=1.5 vminpu=0.92 daily=RES1_2
New load.bt1221251-1 phases=1 bus=1003069189.3.4 model=2 kv=0.127 kw=0.06516837899543379 pf=0.92 conn=wye status=variable vmaxpu=1.5 vminpu=0.92 daily=RES1_2
New load.bt1221251-2 phases=1 bus=1003069189.3.4 model=3 kv=0.127 kw=0.06516837899543379 pf=0.92 conn=wye status=variable vmaxpu=1.5 vminpu=0.92 daily=RES1_2
New load.bt1223607-1 phases=3 bus=1003069161.1.2.3.4 model=2 kv=0.22 kw=0.017226598173515982 pf=0.92 conn=delta status=variable vmaxpu=1.5 vminpu=0.92 daily=RES1_2
New load.bt1223607-2 phases=3 bus=1003069161.1.2.3.4 model=3 kv=0.22 kw=0.017226598173515982 pf=0.92 conn=delta status=variable vmaxpu=1.5 vminpu=0.92 daily=RES1_2
New load.bt1223625-1 phases=3 bus=1003086640.1.2.3.4 model=2 kv=0.22 kw=0.07945605022831048 pf=0.92 conn=delta status=variable vmaxpu=1.5 vminpu=0.92 daily=RES1_2
New load.bt1223625-2 phases=3 bus=1003086640.1.2.3.4 model=3 kv=0.22 kw=0.07945605022831048 pf=0.92 conn=delta status=variable vmaxpu=1.5 vminpu=0.92 daily=RES1_2
New load.bt1235364-1 phases=1 bus=1003088957.1.2.4 model=2 kv=0.22 kw=0.0849566210045662 pf=0.92 conn=delta status=variable vmaxpu=1.5 vminpu=0.92 daily=RES1_2
New load.bt1235364-2 phases=1 bus=1003088957.1.2.4 model=3 kv=0.22 kw=0.0849566210045662 pf=0.92 conn=delta status=variable vmaxpu=1.5 vminpu=0.92 daily=RES1_2
New load.bt1236652-1 phases=1 bus=1003094312.1.2.4 model=2 kv=0.22 kw=0.09702397260273972 pf=0.92 conn=delta status=variable vmaxpu=1.5 vminpu=0.92 daily=RES1_2
New load.bt1236652-2 phases=1 bus=1003094312.1.2.4 model=3 kv=0.22 kw=0.09702397260273972 pf=0.92 conn=delta status=variable vmaxpu=1.5 vminpu=0.92 daily=RES1_2
New load.bt1236983-1 phases=1 bus=1003100633.2.3.4 model=2 kv=0.22 kw=0.07142751141552511 pf=0.92 conn=delta status=variable vmaxpu=1.5 vminpu=0.92 daily=RES1_2