New Loadshape.MyIrrad npts=24 interval=1 mult=[0 0 0 0 0 0 0.03 0.18 0.44 0.7 0.9 0.98 1 0.94 0.8 0.6 0.35 0.14 0.016 0 0 0 0 0] 
New Tshape.MyTemp npts=24 interval=1 temp=[21.5 21 20.6 20.2 19.8 19.5 19.2 20.2 25.5 34.3 42.6 49.3 53.6 55.1 54.4 51.3 45.6 38.4 31.1 25.7 24.0 23.2 22.5 22] 
New XYCurve.MyPvsT npts=4 xarray=[0 25 75 100] yarray=[1.2 1.0 0.8 0.6] 
New XYCurve.MyEff npts=4 xarray=[0.1 0.2 0.4 1.0] yarray=[0.86 0.90 0.93 0.97] 

New PVSystem.MT1219 bus1=179454784.1.2.3 phases=3 conn=delta kv=13.8 kva=240.03 pf=1 irrad=0.84 pmpp=240.03 temperature=25 %cutin=0.1 %cutout=0.1 effcurve=MyEff p-tcurve=MyPvsT Daily=MyIrrad TDaily=MyTemp 

New PVSystem.BT2008 bus1=1002481077.2.3.4 phases=1 conn=delta kv=0.22 kva=22.86 pf=1 irrad=0.84 pmpp=22.86 temperature=25 %cutin=0.1 %cutout=0.1 effcurve=MyEff p-tcurve=MyPvsT Daily=MyIrrad TDaily=MyTemp 
New PVSystem.BT2010 bus1=1004536557.2.3.4 phases=1 conn=delta kv=0.22 kva=22.86 pf=1 irrad=0.84 pmpp=22.86 temperature=25 %cutin=0.1 %cutout=0.1 effcurve=MyEff p-tcurve=MyPvsT Daily=MyIrrad TDaily=MyTemp 
New PVSystem.BT2023 bus1=1002469632.1.2.3.4 phases=3 conn=delta kv=0.22 kva=38.1 pf=1 irrad=0.84 pmpp=38.1 temperature=25 %cutin=0.1 %cutout=0.1 effcurve=MyEff p-tcurve=MyPvsT Daily=MyIrrad TDaily=MyTemp 
New PVSystem.BT2033 bus1=1005247561.1.2.4 phases=1 conn=delta kv=0.22 kva=22.86 pf=1 irrad=0.84 pmpp=22.86 temperature=25 %cutin=0.1 %cutout=0.1 effcurve=MyEff p-tcurve=MyPvsT Daily=MyIrrad TDaily=MyTemp 
New PVSystem.BT2084 bus1=1002449808.1.2.4 phases=1 conn=delta kv=0.24 kva=9.6 pf=1 irrad=0.84 pmpp=9.6 temperature=25 %cutin=0.1 %cutout=0.1 effcurve=MyEff p-tcurve=MyPvsT Daily=MyIrrad TDaily=MyTemp 
New PVSystem.BT91907 bus1=1002477122.2.3.4 phases=1 conn=delta kv=0.22 kva=22.86 pf=1 irrad=0.84 pmpp=22.86 temperature=25 %cutin=0.1 %cutout=0.1 effcurve=MyEff p-tcurve=MyPvsT Daily=MyIrrad TDaily=MyTemp 
New PVSystem.BT91970 bus1=1002461001.1.2.3.4 phases=3 conn=delta kv=0.22 kva=22.86 pf=1 irrad=0.84 pmpp=22.86 temperature=25 %cutin=0.1 %cutout=0.1 effcurve=MyEff p-tcurve=MyPvsT Daily=MyIrrad TDaily=MyTemp 
New PVSystem.BT91976 bus1=1002489470.1.4 phases=1 conn=wye kv=0.127 kva=24.003 pf=1 irrad=0.84 pmpp=24.003 temperature=25 %cutin=0.1 %cutout=0.1 effcurve=MyEff p-tcurve=MyPvsT Daily=MyIrrad TDaily=MyTemp 
New PVSystem.BT92006 bus1=1002477094.1.2.4 phases=1 conn=delta kv=0.22 kva=22.86 pf=1 irrad=0.84 pmpp=22.86 temperature=25 %cutin=0.1 %cutout=0.1 effcurve=MyEff p-tcurve=MyPvsT Daily=MyIrrad TDaily=MyTemp 
New PVSystem.BT92136 bus1=1002460994.2.3.4 phases=1 conn=delta kv=0.22 kva=22.86 pf=1 irrad=0.84 pmpp=22.86 temperature=25 %cutin=0.1 %cutout=0.1 effcurve=MyEff p-tcurve=MyPvsT Daily=MyIrrad TDaily=MyTemp 
New PVSystem.BT92144 bus1=1002449591.2.3.4 phases=1 conn=delta kv=0.22 kva=15.24 pf=1 irrad=0.84 pmpp=15.24 temperature=25 %cutin=0.1 %cutout=0.1 effcurve=MyEff p-tcurve=MyPvsT Daily=MyIrrad TDaily=MyTemp 
New PVSystem.BT92199 bus1=1002452153.3.1.4 phases=1 conn=delta kv=0.22 kva=19.05 pf=1 irrad=0.84 pmpp=19.05 temperature=25 %cutin=0.1 %cutout=0.1 effcurve=MyEff p-tcurve=MyPvsT Daily=MyIrrad TDaily=MyTemp 
New PVSystem.BT92232 bus1=1002463955.3.1.4 phases=1 conn=delta kv=0.22 kva=15.24 pf=1 irrad=0.84 pmpp=15.24 temperature=25 %cutin=0.1 %cutout=0.1 effcurve=MyEff p-tcurve=MyPvsT Daily=MyIrrad TDaily=MyTemp 
New PVSystem.BT92252 bus1=1004601818.1.2.4 phases=1 conn=delta kv=0.22 kva=22.86 pf=1 irrad=0.84 pmpp=22.86 temperature=25 %cutin=0.1 %cutout=0.1 effcurve=MyEff p-tcurve=MyPvsT Daily=MyIrrad TDaily=MyTemp 
New PVSystem.BT92275 bus1=1010493390.1.2.3.4 phases=3 conn=delta kv=0.22 kva=38.1 pf=1 irrad=0.84 pmpp=38.1 temperature=25 %cutin=0.1 %cutout=0.1 effcurve=MyEff p-tcurve=MyPvsT Daily=MyIrrad TDaily=MyTemp 
New PVSystem.BT92279 bus1=1002464193.3.4 phases=1 conn=wye kv=0.127 kva=24.003 pf=1 irrad=0.84 pmpp=24.003 temperature=25 %cutin=0.1 %cutout=0.1 effcurve=MyEff p-tcurve=MyPvsT Daily=MyIrrad TDaily=MyTemp 
New PVSystem.BT92302 bus1=1002463934.1.4 phases=1 conn=wye kv=0.127 kva=30.48 pf=1 irrad=0.84 pmpp=30.48 temperature=25 %cutin=0.1 %cutout=0.1 effcurve=MyEff p-tcurve=MyPvsT Daily=MyIrrad TDaily=MyTemp 
New PVSystem.BT92303 bus1=1003374494.2.3.4 phases=1 conn=delta kv=0.22 kva=22.86 pf=1 irrad=0.84 pmpp=22.86 temperature=25 %cutin=0.1 %cutout=0.1 effcurve=MyEff p-tcurve=MyPvsT Daily=MyIrrad TDaily=MyTemp 
New PVSystem.BT92340 bus1=1002464088.1.2.4 phases=1 conn=delta kv=0.22 kva=24.003 pf=1 irrad=0.84 pmpp=24.003 temperature=25 %cutin=0.1 %cutout=0.1 effcurve=MyEff p-tcurve=MyPvsT Daily=MyIrrad TDaily=MyTemp 
New PVSystem.BT92344 bus1=1004110110.2.3.4 phases=1 conn=delta kv=0.22 kva=22.86 pf=1 irrad=0.84 pmpp=22.86 temperature=25 %cutin=0.1 %cutout=0.1 effcurve=MyEff p-tcurve=MyPvsT Daily=MyIrrad TDaily=MyTemp 
New PVSystem.BT92348 bus1=1002463969.3.4 phases=1 conn=wye kv=0.127 kva=22.86 pf=1 irrad=0.84 pmpp=22.86 temperature=25 %cutin=0.1 %cutout=0.1 effcurve=MyEff p-tcurve=MyPvsT Daily=MyIrrad TDaily=MyTemp 
New PVSystem.BT92363 bus1=1002474203.2.3.4 phases=1 conn=delta kv=0.22 kva=22.86 pf=1 irrad=0.84 pmpp=22.86 temperature=25 %cutin=0.1 %cutout=0.1 effcurve=MyEff p-tcurve=MyPvsT Daily=MyIrrad TDaily=MyTemp 
New PVSystem.BT92376 bus1=1004681786.3.4 phases=1 conn=wye kv=0.127 kva=38.1 pf=1 irrad=0.84 pmpp=38.1 temperature=25 %cutin=0.1 %cutout=0.1 effcurve=MyEff p-tcurve=MyPvsT Daily=MyIrrad TDaily=MyTemp 
New PVSystem.BT92378 bus1=1010267848.1.2.4 phases=1 conn=delta kv=0.22 kva=22.86 pf=1 irrad=0.84 pmpp=22.86 temperature=25 %cutin=0.1 %cutout=0.1 effcurve=MyEff p-tcurve=MyPvsT Daily=MyIrrad TDaily=MyTemp 
New PVSystem.BT92428 bus1=1002467539.2.3.4 phases=1 conn=delta kv=0.22 kva=24.003 pf=1 irrad=0.84 pmpp=24.003 temperature=25 %cutin=0.1 %cutout=0.1 effcurve=MyEff p-tcurve=MyPvsT Daily=MyIrrad TDaily=MyTemp 
New PVSystem.BT92441 bus1=1002495917.2.3.4 phases=1 conn=delta kv=0.22 kva=24.003 pf=1 irrad=0.84 pmpp=24.003 temperature=25 %cutin=0.1 %cutout=0.1 effcurve=MyEff p-tcurve=MyPvsT Daily=MyIrrad TDaily=MyTemp 
New PVSystem.BT92461 bus1=1002467385.1.2.4 phases=1 conn=delta kv=0.22 kva=22.86 pf=1 irrad=0.84 pmpp=22.86 temperature=25 %cutin=0.1 %cutout=0.1 effcurve=MyEff p-tcurve=MyPvsT Daily=MyIrrad TDaily=MyTemp 
New PVSystem.BT92476 bus1=1002452391.1.2.4 phases=1 conn=delta kv=0.22 kva=24.003 pf=1 irrad=0.84 pmpp=24.003 temperature=25 %cutin=0.1 %cutout=0.1 effcurve=MyEff p-tcurve=MyPvsT Daily=MyIrrad TDaily=MyTemp 
New PVSystem.BT92480 bus1=1005260028.1.2.4 phases=1 conn=delta kv=0.22 kva=22.86 pf=1 irrad=0.84 pmpp=22.86 temperature=25 %cutin=0.1 %cutout=0.1 effcurve=MyEff p-tcurve=MyPvsT Daily=MyIrrad TDaily=MyTemp 
New PVSystem.BT92563 bus1=1003374263.3.1.4 phases=1 conn=delta kv=0.22 kva=22.86 pf=1 irrad=0.84 pmpp=22.86 temperature=25 %cutin=0.1 %cutout=0.1 effcurve=MyEff p-tcurve=MyPvsT Daily=MyIrrad TDaily=MyTemp 
New PVSystem.BT92720 bus1=1002481294.2.4 phases=1 conn=wye kv=0.127 kva=22.86 pf=1 irrad=0.84 pmpp=22.86 temperature=25 %cutin=0.1 %cutout=0.1 effcurve=MyEff p-tcurve=MyPvsT Daily=MyIrrad TDaily=MyTemp 
New PVSystem.BT92722 bus1=1002481259.1.2.4 phases=1 conn=delta kv=0.22 kva=24.003 pf=1 irrad=0.84 pmpp=24.003 temperature=25 %cutin=0.1 %cutout=0.1 effcurve=MyEff p-tcurve=MyPvsT Daily=MyIrrad TDaily=MyTemp 
New PVSystem.BT92750 bus1=1002480909.1.2.4 phases=1 conn=delta kv=0.22 kva=22.86 pf=1 irrad=0.84 pmpp=22.86 temperature=25 %cutin=0.1 %cutout=0.1 effcurve=MyEff p-tcurve=MyPvsT Daily=MyIrrad TDaily=MyTemp 
New PVSystem.BT92938 bus1=1002481252.1.2.4 phases=1 conn=delta kv=0.22 kva=22.86 pf=1 irrad=0.84 pmpp=22.86 temperature=25 %cutin=0.1 %cutout=0.1 effcurve=MyEff p-tcurve=MyPvsT Daily=MyIrrad TDaily=MyTemp 
New PVSystem.BT93077 bus1=1002466734.3.1.4 phases=1 conn=delta kv=0.22 kva=24.003 pf=1 irrad=0.84 pmpp=24.003 temperature=25 %cutin=0.1 %cutout=0.1 effcurve=MyEff p-tcurve=MyPvsT Daily=MyIrrad TDaily=MyTemp 
New PVSystem.BT93078 bus1=1002466741.3.4 phases=1 conn=wye kv=0.127 kva=15.24 pf=1 irrad=0.84 pmpp=15.24 temperature=25 %cutin=0.1 %cutout=0.1 effcurve=MyEff p-tcurve=MyPvsT Daily=MyIrrad TDaily=MyTemp 
New PVSystem.BT93137 bus1=1002447820.1.4 phases=1 conn=wye kv=0.127 kva=22.86 pf=1 irrad=0.84 pmpp=22.86 temperature=25 %cutin=0.1 %cutout=0.1 effcurve=MyEff p-tcurve=MyPvsT Daily=MyIrrad TDaily=MyTemp 
New PVSystem.BT93159 bus1=1002447449.1.2.4 phases=1 conn=delta kv=0.22 kva=15.24 pf=1 irrad=0.84 pmpp=15.24 temperature=25 %cutin=0.1 %cutout=0.1 effcurve=MyEff p-tcurve=MyPvsT Daily=MyIrrad TDaily=MyTemp 
New PVSystem.BT93213 bus1=1002460798.3.1.4 phases=1 conn=delta kv=0.22 kva=22.86 pf=1 irrad=0.84 pmpp=22.86 temperature=25 %cutin=0.1 %cutout=0.1 effcurve=MyEff p-tcurve=MyPvsT Daily=MyIrrad TDaily=MyTemp 
New PVSystem.BT93223 bus1=1010153350.2.3.4 phases=1 conn=delta kv=0.22 kva=22.86 pf=1 irrad=0.84 pmpp=22.86 temperature=25 %cutin=0.1 %cutout=0.1 effcurve=MyEff p-tcurve=MyPvsT Daily=MyIrrad TDaily=MyTemp 
New PVSystem.BT93245 bus1=1002460287.3.4 phases=1 conn=wye kv=0.127 kva=22.86 pf=1 irrad=0.84 pmpp=22.86 temperature=25 %cutin=0.1 %cutout=0.1 effcurve=MyEff p-tcurve=MyPvsT Daily=MyIrrad TDaily=MyTemp 
New PVSystem.BT93282 bus1=1004092890.2.4 phases=1 conn=wye kv=0.127 kva=24.003 pf=1 irrad=0.84 pmpp=24.003 temperature=25 %cutin=0.1 %cutout=0.1 effcurve=MyEff p-tcurve=MyPvsT Daily=MyIrrad TDaily=MyTemp 
New PVSystem.BT93320 bus1=1002503638.1.2.4 phases=1 conn=delta kv=0.22 kva=15.24 pf=1 irrad=0.84 pmpp=15.24 temperature=25 %cutin=0.1 %cutout=0.1 effcurve=MyEff p-tcurve=MyPvsT Daily=MyIrrad TDaily=MyTemp 
New PVSystem.BT93333 bus1=1002506207.1.2.4 phases=1 conn=delta kv=0.22 kva=22.86 pf=1 irrad=0.84 pmpp=22.86 temperature=25 %cutin=0.1 %cutout=0.1 effcurve=MyEff p-tcurve=MyPvsT Daily=MyIrrad TDaily=MyTemp 
New PVSystem.BT93369 bus1=1002466839.2.4 phases=1 conn=wye kv=0.127 kva=22.86 pf=1 irrad=0.84 pmpp=22.86 temperature=25 %cutin=0.1 %cutout=0.1 effcurve=MyEff p-tcurve=MyPvsT Daily=MyIrrad TDaily=MyTemp 
New PVSystem.BT93370 bus1=1002528642.3.1.4 phases=1 conn=delta kv=0.22 kva=22.86 pf=1 irrad=0.84 pmpp=22.86 temperature=25 %cutin=0.1 %cutout=0.1 effcurve=MyEff p-tcurve=MyPvsT Daily=MyIrrad TDaily=MyTemp 
New PVSystem.BT93384 bus1=1002528579.1.4 phases=1 conn=wye kv=0.127 kva=24.003 pf=1 irrad=0.84 pmpp=24.003 temperature=25 %cutin=0.1 %cutout=0.1 effcurve=MyEff p-tcurve=MyPvsT Daily=MyIrrad TDaily=MyTemp 
New PVSystem.BT93385 bus1=1010595357.3.1.4 phases=1 conn=delta kv=0.22 kva=22.86 pf=1 irrad=0.84 pmpp=22.86 temperature=25 %cutin=0.1 %cutout=0.1 effcurve=MyEff p-tcurve=MyPvsT Daily=MyIrrad TDaily=MyTemp 
New PVSystem.BT93412 bus1=1002487972.1.2.4 phases=1 conn=delta kv=0.22 kva=24.003 pf=1 irrad=0.84 pmpp=24.003 temperature=25 %cutin=0.1 %cutout=0.1 effcurve=MyEff p-tcurve=MyPvsT Daily=MyIrrad TDaily=MyTemp 
New PVSystem.BT93413 bus1=1002487965.1.2.4 phases=1 conn=delta kv=0.22 kva=24.003 pf=1 irrad=0.84 pmpp=24.003 temperature=25 %cutin=0.1 %cutout=0.1 effcurve=MyEff p-tcurve=MyPvsT Daily=MyIrrad TDaily=MyTemp 
New PVSystem.BT93484 bus1=1004239190.1.2.4 phases=1 conn=delta kv=0.22 kva=24.003 pf=1 irrad=0.84 pmpp=24.003 temperature=25 %cutin=0.1 %cutout=0.1 effcurve=MyEff p-tcurve=MyPvsT Daily=MyIrrad TDaily=MyTemp 
New PVSystem.BT93634 bus1=1002515440.2.3.4 phases=1 conn=delta kv=0.22 kva=22.86 pf=1 irrad=0.84 pmpp=22.86 temperature=25 %cutin=0.1 %cutout=0.1 effcurve=MyEff p-tcurve=MyPvsT Daily=MyIrrad TDaily=MyTemp 
New PVSystem.BT94137 bus1=1004487900.3.1.4 phases=1 conn=delta kv=0.22 kva=22.86 pf=1 irrad=0.84 pmpp=22.86 temperature=25 %cutin=0.1 %cutout=0.1 effcurve=MyEff p-tcurve=MyPvsT Daily=MyIrrad TDaily=MyTemp 
New PVSystem.BT94138 bus1=1003358590.3.4 phases=1 conn=wye kv=0.127 kva=22.86 pf=1 irrad=0.84 pmpp=22.86 temperature=25 %cutin=0.1 %cutout=0.1 effcurve=MyEff p-tcurve=MyPvsT Daily=MyIrrad TDaily=MyTemp 
New PVSystem.BT94167 bus1=1004706881.2.3.4 phases=1 conn=delta kv=0.22 kva=22.86 pf=1 irrad=0.84 pmpp=22.86 temperature=25 %cutin=0.1 %cutout=0.1 effcurve=MyEff p-tcurve=MyPvsT Daily=MyIrrad TDaily=MyTemp 
New PVSystem.BT94175 bus1=1002447134.1.2.4 phases=1 conn=delta kv=0.22 kva=22.86 pf=1 irrad=0.84 pmpp=22.86 temperature=25 %cutin=0.1 %cutout=0.1 effcurve=MyEff p-tcurve=MyPvsT Daily=MyIrrad TDaily=MyTemp 
New PVSystem.BT94216 bus1=1005073156.2.3.4 phases=1 conn=delta kv=0.22 kva=38.1 pf=1 irrad=0.84 pmpp=38.1 temperature=25 %cutin=0.1 %cutout=0.1 effcurve=MyEff p-tcurve=MyPvsT Daily=MyIrrad TDaily=MyTemp 
New PVSystem.BT94306 bus1=1004489160.3.4 phases=1 conn=wye kv=0.127 kva=22.86 pf=1 irrad=0.84 pmpp=22.86 temperature=25 %cutin=0.1 %cutout=0.1 effcurve=MyEff p-tcurve=MyPvsT Daily=MyIrrad TDaily=MyTemp 
New PVSystem.BT94449 bus1=1002452069.1.4 phases=1 conn=wye kv=0.127 kva=24.003 pf=1 irrad=0.84 pmpp=24.003 temperature=25 %cutin=0.1 %cutout=0.1 effcurve=MyEff p-tcurve=MyPvsT Daily=MyIrrad TDaily=MyTemp 
New PVSystem.BT94453 bus1=1002476373.1.2.3.4 phases=3 conn=delta kv=0.22 kva=22.86 pf=1 irrad=0.84 pmpp=22.86 temperature=25 %cutin=0.1 %cutout=0.1 effcurve=MyEff p-tcurve=MyPvsT Daily=MyIrrad TDaily=MyTemp 
New PVSystem.BT94480 bus1=1002448345.3.4 phases=1 conn=wye kv=0.127 kva=22.86 pf=1 irrad=0.84 pmpp=22.86 temperature=25 %cutin=0.1 %cutout=0.1 effcurve=MyEff p-tcurve=MyPvsT Daily=MyIrrad TDaily=MyTemp 
New PVSystem.BT94481 bus1=1002449857.2.3.4 phases=1 conn=delta kv=0.22 kva=11.43 pf=1 irrad=0.84 pmpp=11.43 temperature=25 %cutin=0.1 %cutout=0.1 effcurve=MyEff p-tcurve=MyPvsT Daily=MyIrrad TDaily=MyTemp 
New PVSystem.BT94501 bus1=1002449885.2.3.4 phases=1 conn=delta kv=0.22 kva=24.003 pf=1 irrad=0.84 pmpp=24.003 temperature=25 %cutin=0.1 %cutout=0.1 effcurve=MyEff p-tcurve=MyPvsT Daily=MyIrrad TDaily=MyTemp 
New PVSystem.BT94519 bus1=1002464333.1.2.3.4 phases=3 conn=delta kv=0.22 kva=38.1 pf=1 irrad=0.84 pmpp=38.1 temperature=25 %cutin=0.1 %cutout=0.1 effcurve=MyEff p-tcurve=MyPvsT Daily=MyIrrad TDaily=MyTemp 
New PVSystem.BT94544 bus1=1002455205.1.2.4 phases=1 conn=delta kv=0.22 kva=22.86 pf=1 irrad=0.84 pmpp=22.86 temperature=25 %cutin=0.1 %cutout=0.1 effcurve=MyEff p-tcurve=MyPvsT Daily=MyIrrad TDaily=MyTemp 
New PVSystem.BT94559 bus1=1002455121.1.2.3.4 phases=3 conn=delta kv=0.22 kva=22.86 pf=1 irrad=0.84 pmpp=22.86 temperature=25 %cutin=0.1 %cutout=0.1 effcurve=MyEff p-tcurve=MyPvsT Daily=MyIrrad TDaily=MyTemp 
New PVSystem.BT94575 bus1=1002448415.1.2.3.4 phases=3 conn=delta kv=0.22 kva=24.003 pf=1 irrad=0.84 pmpp=24.003 temperature=25 %cutin=0.1 %cutout=0.1 effcurve=MyEff p-tcurve=MyPvsT Daily=MyIrrad TDaily=MyTemp 
New PVSystem.BT94602 bus1=1004987280.1.4 phases=1 conn=wye kv=0.127 kva=22.86 pf=1 irrad=0.84 pmpp=22.86 temperature=25 %cutin=0.1 %cutout=0.1 effcurve=MyEff p-tcurve=MyPvsT Daily=MyIrrad TDaily=MyTemp 
New PVSystem.BT94620 bus1=1002462583.1.2.3.4 phases=3 conn=delta kv=0.22 kva=22.86 pf=1 irrad=0.84 pmpp=22.86 temperature=25 %cutin=0.1 %cutout=0.1 effcurve=MyEff p-tcurve=MyPvsT Daily=MyIrrad TDaily=MyTemp 
New PVSystem.BT94651 bus1=1002529958.1.2.4 phases=1 conn=delta kv=0.22 kva=22.86 pf=1 irrad=0.84 pmpp=22.86 temperature=25 %cutin=0.1 %cutout=0.1 effcurve=MyEff p-tcurve=MyPvsT Daily=MyIrrad TDaily=MyTemp 
New PVSystem.BT94688 bus1=1002471473.1.2.4 phases=1 conn=delta kv=0.22 kva=22.86 pf=1 irrad=0.84 pmpp=22.86 temperature=25 %cutin=0.1 %cutout=0.1 effcurve=MyEff p-tcurve=MyPvsT Daily=MyIrrad TDaily=MyTemp 
New PVSystem.BT94689 bus1=1010124733.1.2.4 phases=1 conn=delta kv=0.22 kva=22.86 pf=1 irrad=0.84 pmpp=22.86 temperature=25 %cutin=0.1 %cutout=0.1 effcurve=MyEff p-tcurve=MyPvsT Daily=MyIrrad TDaily=MyTemp 
New PVSystem.BT94694 bus1=1002508615.1.2.3.4 phases=3 conn=delta kv=0.22 kva=22.86 pf=1 irrad=0.84 pmpp=22.86 temperature=25 %cutin=0.1 %cutout=0.1 effcurve=MyEff p-tcurve=MyPvsT Daily=MyIrrad TDaily=MyTemp 
New PVSystem.BT94707 bus1=1002471690.2.3.4 phases=1 conn=delta kv=0.22 kva=24.003 pf=1 irrad=0.84 pmpp=24.003 temperature=25 %cutin=0.1 %cutout=0.1 effcurve=MyEff p-tcurve=MyPvsT Daily=MyIrrad TDaily=MyTemp 
New PVSystem.BT94708 bus1=1002471704.2.3.4 phases=1 conn=delta kv=0.22 kva=24.003 pf=1 irrad=0.84 pmpp=24.003 temperature=25 %cutin=0.1 %cutout=0.1 effcurve=MyEff p-tcurve=MyPvsT Daily=MyIrrad TDaily=MyTemp 
New PVSystem.BT94723 bus1=1010473518.1.2.4 phases=1 conn=delta kv=0.22 kva=22.86 pf=1 irrad=0.84 pmpp=22.86 temperature=25 %cutin=0.1 %cutout=0.1 effcurve=MyEff p-tcurve=MyPvsT Daily=MyIrrad TDaily=MyTemp 
New PVSystem.BT94724 bus1=1002471669.3.1.4 phases=1 conn=delta kv=0.22 kva=22.86 pf=1 irrad=0.84 pmpp=22.86 temperature=25 %cutin=0.1 %cutout=0.1 effcurve=MyEff p-tcurve=MyPvsT Daily=MyIrrad TDaily=MyTemp 
New PVSystem.BT94799 bus1=1002476681.3.1.4 phases=1 conn=delta kv=0.22 kva=22.86 pf=1 irrad=0.84 pmpp=22.86 temperature=25 %cutin=0.1 %cutout=0.1 effcurve=MyEff p-tcurve=MyPvsT Daily=MyIrrad TDaily=MyTemp 
New PVSystem.BT94800 bus1=1004084560.1.2.3.4 phases=3 conn=delta kv=0.22 kva=22.86 pf=1 irrad=0.84 pmpp=22.86 temperature=25 %cutin=0.1 %cutout=0.1 effcurve=MyEff p-tcurve=MyPvsT Daily=MyIrrad TDaily=MyTemp 
New PVSystem.BT94847 bus1=1002448793.3.1.4 phases=1 conn=delta kv=0.22 kva=22.86 pf=1 irrad=0.84 pmpp=22.86 temperature=25 %cutin=0.1 %cutout=0.1 effcurve=MyEff p-tcurve=MyPvsT Daily=MyIrrad TDaily=MyTemp 
New PVSystem.BT94863 bus1=1004914809.1.2.4 phases=1 conn=delta kv=0.22 kva=15.24 pf=1 irrad=0.84 pmpp=15.24 temperature=25 %cutin=0.1 %cutout=0.1 effcurve=MyEff p-tcurve=MyPvsT Daily=MyIrrad TDaily=MyTemp 
New PVSystem.BT95150 bus1=1002443116.1.2.4 phases=1 conn=delta kv=0.22 kva=26.67 pf=1 irrad=0.84 pmpp=26.67 temperature=25 %cutin=0.1 %cutout=0.1 effcurve=MyEff p-tcurve=MyPvsT Daily=MyIrrad TDaily=MyTemp 
New PVSystem.BT95272 bus1=1010223617.1.2.4 phases=1 conn=delta kv=0.22 kva=22.86 pf=1 irrad=0.84 pmpp=22.86 temperature=25 %cutin=0.1 %cutout=0.1 effcurve=MyEff p-tcurve=MyPvsT Daily=MyIrrad TDaily=MyTemp 
New PVSystem.BT95316 bus1=1002483667.2.3.4 phases=1 conn=delta kv=0.22 kva=15.24 pf=1 irrad=0.84 pmpp=15.24 temperature=25 %cutin=0.1 %cutout=0.1 effcurve=MyEff p-tcurve=MyPvsT Daily=MyIrrad TDaily=MyTemp 
New PVSystem.BT95318 bus1=1002518247.3.1.4 phases=1 conn=delta kv=0.22 kva=24.003 pf=1 irrad=0.84 pmpp=24.003 temperature=25 %cutin=0.1 %cutout=0.1 effcurve=MyEff p-tcurve=MyPvsT Daily=MyIrrad TDaily=MyTemp 
New PVSystem.BT95336 bus1=1002518219.2.3.4 phases=1 conn=delta kv=0.22 kva=22.86 pf=1 irrad=0.84 pmpp=22.86 temperature=25 %cutin=0.1 %cutout=0.1 effcurve=MyEff p-tcurve=MyPvsT Daily=MyIrrad TDaily=MyTemp 
New PVSystem.BT95371 bus1=1003348587.1.2.4 phases=1 conn=delta kv=0.22 kva=22.86 pf=1 irrad=0.84 pmpp=22.86 temperature=25 %cutin=0.1 %cutout=0.1 effcurve=MyEff p-tcurve=MyPvsT Daily=MyIrrad TDaily=MyTemp 
New PVSystem.BT95397 bus1=1002443214.2.3.4 phases=1 conn=delta kv=0.22 kva=22.86 pf=1 irrad=0.84 pmpp=22.86 temperature=25 %cutin=0.1 %cutout=0.1 effcurve=MyEff p-tcurve=MyPvsT Daily=MyIrrad TDaily=MyTemp 
New PVSystem.BT95416 bus1=1010663699.3.1.4 phases=1 conn=delta kv=0.22 kva=22.86 pf=1 irrad=0.84 pmpp=22.86 temperature=25 %cutin=0.1 %cutout=0.1 effcurve=MyEff p-tcurve=MyPvsT Daily=MyIrrad TDaily=MyTemp 
New PVSystem.BT95427 bus1=1002529937.2.3.4 phases=1 conn=delta kv=0.22 kva=22.86 pf=1 irrad=0.84 pmpp=22.86 temperature=25 %cutin=0.1 %cutout=0.1 effcurve=MyEff p-tcurve=MyPvsT Daily=MyIrrad TDaily=MyTemp 
New PVSystem.BT95570 bus1=1002490170.3.4 phases=1 conn=wye kv=0.127 kva=24.003 pf=1 irrad=0.84 pmpp=24.003 temperature=25 %cutin=0.1 %cutout=0.1 effcurve=MyEff p-tcurve=MyPvsT Daily=MyIrrad TDaily=MyTemp 
New PVSystem.BT95581 bus1=1002525016.3.1.4 phases=1 conn=delta kv=0.22 kva=22.86 pf=1 irrad=0.84 pmpp=22.86 temperature=25 %cutin=0.1 %cutout=0.1 effcurve=MyEff p-tcurve=MyPvsT Daily=MyIrrad TDaily=MyTemp 
New PVSystem.BT95614 bus1=1002515097.2.3.4 phases=1 conn=delta kv=0.22 kva=24.003 pf=1 irrad=0.84 pmpp=24.003 temperature=25 %cutin=0.1 %cutout=0.1 effcurve=MyEff p-tcurve=MyPvsT Daily=MyIrrad TDaily=MyTemp 
New PVSystem.BT95641 bus1=1004403564.1.2.3.4 phases=3 conn=delta kv=0.22 kva=24.003 pf=1 irrad=0.84 pmpp=24.003 temperature=25 %cutin=0.1 %cutout=0.1 effcurve=MyEff p-tcurve=MyPvsT Daily=MyIrrad TDaily=MyTemp 
New PVSystem.BT95661 bus1=1002488896.1.2.4 phases=1 conn=delta kv=0.22 kva=22.86 pf=1 irrad=0.84 pmpp=22.86 temperature=25 %cutin=0.1 %cutout=0.1 effcurve=MyEff p-tcurve=MyPvsT Daily=MyIrrad TDaily=MyTemp 
New PVSystem.BT95663 bus1=1002502749.1.2.4 phases=1 conn=delta kv=0.22 kva=22.86 pf=1 irrad=0.84 pmpp=22.86 temperature=25 %cutin=0.1 %cutout=0.1 effcurve=MyEff p-tcurve=MyPvsT Daily=MyIrrad TDaily=MyTemp 
New PVSystem.BT95669 bus1=1002501062.3.1.4 phases=1 conn=delta kv=0.22 kva=24.003 pf=1 irrad=0.84 pmpp=24.003 temperature=25 %cutin=0.1 %cutout=0.1 effcurve=MyEff p-tcurve=MyPvsT Daily=MyIrrad TDaily=MyTemp 
New PVSystem.BT95675 bus1=1002488735.1.4 phases=1 conn=wye kv=0.127 kva=22.86 pf=1 irrad=0.84 pmpp=22.86 temperature=25 %cutin=0.1 %cutout=0.1 effcurve=MyEff p-tcurve=MyPvsT Daily=MyIrrad TDaily=MyTemp 
New PVSystem.BT95684 bus1=1006828560.1.2.4 phases=1 conn=delta kv=0.22 kva=22.86 pf=1 irrad=0.84 pmpp=22.86 temperature=25 %cutin=0.1 %cutout=0.1 effcurve=MyEff p-tcurve=MyPvsT Daily=MyIrrad TDaily=MyTemp 
New PVSystem.BT95686 bus1=1002501048.3.1.4 phases=1 conn=delta kv=0.22 kva=24.003 pf=1 irrad=0.84 pmpp=24.003 temperature=25 %cutin=0.1 %cutout=0.1 effcurve=MyEff p-tcurve=MyPvsT Daily=MyIrrad TDaily=MyTemp 
New PVSystem.BT95687 bus1=1002501174.2.3.4 phases=1 conn=delta kv=0.22 kva=24.003 pf=1 irrad=0.84 pmpp=24.003 temperature=25 %cutin=0.1 %cutout=0.1 effcurve=MyEff p-tcurve=MyPvsT Daily=MyIrrad TDaily=MyTemp 
New PVSystem.BT95733 bus1=1004779695.1.2.3.4 phases=3 conn=delta kv=0.22 kva=22.86 pf=1 irrad=0.84 pmpp=22.86 temperature=25 %cutin=0.1 %cutout=0.1 effcurve=MyEff p-tcurve=MyPvsT Daily=MyIrrad TDaily=MyTemp 
New PVSystem.BT95766 bus1=1002513410.1.2.4 phases=1 conn=delta kv=0.22 kva=15.24 pf=1 irrad=0.84 pmpp=15.24 temperature=25 %cutin=0.1 %cutout=0.1 effcurve=MyEff p-tcurve=MyPvsT Daily=MyIrrad TDaily=MyTemp 
New PVSystem.BT95773 bus1=1002463038.2.3.4 phases=1 conn=delta kv=0.22 kva=22.86 pf=1 irrad=0.84 pmpp=22.86 temperature=25 %cutin=0.1 %cutout=0.1 effcurve=MyEff p-tcurve=MyPvsT Daily=MyIrrad TDaily=MyTemp 
New PVSystem.BT95774 bus1=1002507117.1.2.4 phases=1 conn=delta kv=0.22 kva=24.003 pf=1 irrad=0.84 pmpp=24.003 temperature=25 %cutin=0.1 %cutout=0.1 effcurve=MyEff p-tcurve=MyPvsT Daily=MyIrrad TDaily=MyTemp 


New PVSystem.BT95776 bus1=1002482862.1.2.3.4 phases=3 conn=delta kv=0.22 kva=24.003 pf=1 irrad=0.84 pmpp=24.003 temperature=25 %cutin=0.1 %cutout=0.1 effcurve=MyEff p-tcurve=MyPvsT Daily=MyIrrad TDaily=MyTemp 
New PVSystem.BT95821 bus1=1002468785.1.4 phases=1 conn=wye kv=0.127 kva=22.86 pf=1 irrad=0.84 pmpp=22.86 temperature=25 %cutin=0.1 %cutout=0.1 effcurve=MyEff p-tcurve=MyPvsT Daily=MyIrrad TDaily=MyTemp 
New PVSystem.BT95828 bus1=1002511128.3.4 phases=1 conn=wye kv=0.127 kva=24.003 pf=1 irrad=0.84 pmpp=24.003 temperature=25 %cutin=0.1 %cutout=0.1 effcurve=MyEff p-tcurve=MyPvsT Daily=MyIrrad TDaily=MyTemp 
New PVSystem.BT95841 bus1=1002511079.1.2.4 phases=1 conn=delta kv=0.22 kva=22.86 pf=1 irrad=0.84 pmpp=22.86 temperature=25 %cutin=0.1 %cutout=0.1 effcurve=MyEff p-tcurve=MyPvsT Daily=MyIrrad TDaily=MyTemp 
New PVSystem.BT95935 bus1=1002511093.1.2.3.4 phases=3 conn=delta kv=0.22 kva=22.86 pf=1 irrad=0.84 pmpp=22.86 temperature=25 %cutin=0.1 %cutout=0.1 effcurve=MyEff p-tcurve=MyPvsT Daily=MyIrrad TDaily=MyTemp 
New PVSystem.BT95957 bus1=1002502105.1.2.3.4 phases=3 conn=delta kv=0.22 kva=22.86 pf=1 irrad=0.84 pmpp=22.86 temperature=25 %cutin=0.1 %cutout=0.1 effcurve=MyEff p-tcurve=MyPvsT Daily=MyIrrad TDaily=MyTemp 
New PVSystem.BT96003 bus1=1002512017.2.3.4 phases=1 conn=delta kv=0.22 kva=24.003 pf=1 irrad=0.84 pmpp=24.003 temperature=25 %cutin=0.1 %cutout=0.1 effcurve=MyEff p-tcurve=MyPvsT Daily=MyIrrad TDaily=MyTemp 
New PVSystem.BT96011 bus1=1002486019.2.3.4 phases=1 conn=delta kv=0.22 kva=22.86 pf=1 irrad=0.84 pmpp=22.86 temperature=25 %cutin=0.1 %cutout=0.1 effcurve=MyEff p-tcurve=MyPvsT Daily=MyIrrad TDaily=MyTemp 
New PVSystem.BT96030 bus1=1005020572.2.3.4 phases=1 conn=delta kv=0.22 kva=22.86 pf=1 irrad=0.84 pmpp=22.86 temperature=25 %cutin=0.1 %cutout=0.1 effcurve=MyEff p-tcurve=MyPvsT Daily=MyIrrad TDaily=MyTemp 
New PVSystem.BT96044 bus1=1002498059.1.2.4 phases=1 conn=delta kv=0.22 kva=22.86 pf=1 irrad=0.84 pmpp=22.86 temperature=25 %cutin=0.1 %cutout=0.1 effcurve=MyEff p-tcurve=MyPvsT Daily=MyIrrad TDaily=MyTemp 
New PVSystem.BT96065 bus1=1002449409.1.2.4 phases=1 conn=delta kv=0.22 kva=15.24 pf=1 irrad=0.84 pmpp=15.24 temperature=25 %cutin=0.1 %cutout=0.1 effcurve=MyEff p-tcurve=MyPvsT Daily=MyIrrad TDaily=MyTemp 
New PVSystem.BT96069 bus1=1010442835.3.1.4 phases=1 conn=delta kv=0.22 kva=15.24 pf=1 irrad=0.84 pmpp=15.24 temperature=25 %cutin=0.1 %cutout=0.1 effcurve=MyEff p-tcurve=MyPvsT Daily=MyIrrad TDaily=MyTemp 
New PVSystem.BT96090 bus1=1002449311.3.1.4 phases=1 conn=delta kv=0.22 kva=22.86 pf=1 irrad=0.84 pmpp=22.86 temperature=25 %cutin=0.1 %cutout=0.1 effcurve=MyEff p-tcurve=MyPvsT Daily=MyIrrad TDaily=MyTemp 
New PVSystem.BT96119 bus1=1002470682.2.3.4 phases=1 conn=delta kv=0.22 kva=26.67 pf=1 irrad=0.84 pmpp=26.67 temperature=25 %cutin=0.1 %cutout=0.1 effcurve=MyEff p-tcurve=MyPvsT Daily=MyIrrad TDaily=MyTemp 
New PVSystem.BT96121 bus1=1011508632.2.3.4 phases=1 conn=delta kv=0.22 kva=24.003 pf=1 irrad=0.84 pmpp=24.003 temperature=25 %cutin=0.1 %cutout=0.1 effcurve=MyEff p-tcurve=MyPvsT Daily=MyIrrad TDaily=MyTemp 
New PVSystem.BT96184 bus1=1002492998.1.2.4 phases=1 conn=delta kv=0.22 kva=24.003 pf=1 irrad=0.84 pmpp=24.003 temperature=25 %cutin=0.1 %cutout=0.1 effcurve=MyEff p-tcurve=MyPvsT Daily=MyIrrad TDaily=MyTemp 
New PVSystem.BT96329 bus1=1011152662.1.2.3.4 phases=3 conn=delta kv=0.22 kva=30.48 pf=1 irrad=0.84 pmpp=30.48 temperature=25 %cutin=0.1 %cutout=0.1 effcurve=MyEff p-tcurve=MyPvsT Daily=MyIrrad TDaily=MyTemp 
New PVSystem.BT96354 bus1=1002443298.1.2.3.4 phases=3 conn=delta kv=0.22 kva=38.1 pf=1 irrad=0.84 pmpp=38.1 temperature=25 %cutin=0.1 %cutout=0.1 effcurve=MyEff p-tcurve=MyPvsT Daily=MyIrrad TDaily=MyTemp 
New PVSystem.BT96370 bus1=1002461519.2.4 phases=1 conn=wye kv=0.127 kva=22.86 pf=1 irrad=0.84 pmpp=22.86 temperature=25 %cutin=0.1 %cutout=0.1 effcurve=MyEff p-tcurve=MyPvsT Daily=MyIrrad TDaily=MyTemp 
New PVSystem.BT96457 bus1=1005375640.1.2.4 phases=1 conn=delta kv=0.22 kva=22.86 pf=1 irrad=0.84 pmpp=22.86 temperature=25 %cutin=0.1 %cutout=0.1 effcurve=MyEff p-tcurve=MyPvsT Daily=MyIrrad TDaily=MyTemp 
New PVSystem.BT96482 bus1=1002443291.1.2.3.4 phases=3 conn=delta kv=0.22 kva=38.1 pf=1 irrad=0.84 pmpp=38.1 temperature=25 %cutin=0.1 %cutout=0.1 effcurve=MyEff p-tcurve=MyPvsT Daily=MyIrrad TDaily=MyTemp 
New PVSystem.BT96483 bus1=1002443326.3.1.4 phases=1 conn=delta kv=0.22 kva=22.86 pf=1 irrad=0.84 pmpp=22.86 temperature=25 %cutin=0.1 %cutout=0.1 effcurve=MyEff p-tcurve=MyPvsT Daily=MyIrrad TDaily=MyTemp 
New PVSystem.BT96485 bus1=1002461582.3.1.4 phases=1 conn=delta kv=0.22 kva=24.003 pf=1 irrad=0.84 pmpp=24.003 temperature=25 %cutin=0.1 %cutout=0.1 effcurve=MyEff p-tcurve=MyPvsT Daily=MyIrrad TDaily=MyTemp 
New PVSystem.BT96523 bus1=1002461729.2.3.4 phases=1 conn=delta kv=0.22 kva=22.86 pf=1 irrad=0.84 pmpp=22.86 temperature=25 %cutin=0.1 %cutout=0.1 effcurve=MyEff p-tcurve=MyPvsT Daily=MyIrrad TDaily=MyTemp 

New PVSystem.BT96538 bus1=1002443333.1.2.3.4 phases=3 conn=delta kv=0.22 kva=15.24 pf=1 irrad=0.84 pmpp=15.24 temperature=25 %cutin=0.1 %cutout=0.1 effcurve=MyEff p-tcurve=MyPvsT Daily=MyIrrad TDaily=MyTemp 
New PVSystem.BT97110 bus1=1002447057.1.2.3.4 phases=3 conn=delta kv=0.22 kva=22.86 pf=1 irrad=0.84 pmpp=22.86 temperature=25 %cutin=0.1 %cutout=0.1 effcurve=MyEff p-tcurve=MyPvsT Daily=MyIrrad TDaily=MyTemp 
New PVSystem.BT97111 bus1=1003266071.1.2.4 phases=1 conn=delta kv=0.22 kva=22.86 pf=1 irrad=0.84 pmpp=22.86 temperature=25 %cutin=0.1 %cutout=0.1 effcurve=MyEff p-tcurve=MyPvsT Daily=MyIrrad TDaily=MyTemp 
New PVSystem.BT97137 bus1=1006126901.1.2.3.4 phases=3 conn=delta kv=0.22 kva=26.67 pf=1 irrad=0.84 pmpp=26.67 temperature=25 %cutin=0.1 %cutout=0.1 effcurve=MyEff p-tcurve=MyPvsT Daily=MyIrrad TDaily=MyTemp 
New PVSystem.BT97307 bus1=1003266085.1.2.4 phases=1 conn=delta kv=0.24 kva=7.2 pf=1 irrad=0.84 pmpp=7.2 temperature=25 %cutin=0.1 %cutout=0.1 effcurve=MyEff p-tcurve=MyPvsT Daily=MyIrrad TDaily=MyTemp 
New PVSystem.BT97438 bus1=1003266022.1.2.4 phases=1 conn=delta kv=0.22 kva=22.86 pf=1 irrad=0.84 pmpp=22.86 temperature=25 %cutin=0.1 %cutout=0.1 effcurve=MyEff p-tcurve=MyPvsT Daily=MyIrrad TDaily=MyTemp 
New PVSystem.BT97465 bus1=1010349604.1.2.3.4 phases=3 conn=delta kv=0.22 kva=38.1 pf=1 irrad=0.84 pmpp=38.1 temperature=25 %cutin=0.1 %cutout=0.1 effcurve=MyEff p-tcurve=MyPvsT Daily=MyIrrad TDaily=MyTemp 
New PVSystem.BT97766 bus1=1004560847.1.2.4 phases=1 conn=delta kv=0.24 kva=7.2 pf=1 irrad=0.84 pmpp=7.2 temperature=25 %cutin=0.1 %cutout=0.1 effcurve=MyEff p-tcurve=MyPvsT Daily=MyIrrad TDaily=MyTemp 
New PVSystem.BT97803 bus1=1003266120.1.2.4 phases=1 conn=delta kv=0.24 kva=7.2 pf=1 irrad=0.84 pmpp=7.2 temperature=25 %cutin=0.1 %cutout=0.1 effcurve=MyEff p-tcurve=MyPvsT Daily=MyIrrad TDaily=MyTemp 
New PVSystem.BT97804 bus1=1010196216.1.2.4 phases=1 conn=delta kv=0.22 kva=30.48 pf=1 irrad=0.84 pmpp=30.48 temperature=25 %cutin=0.1 %cutout=0.1 effcurve=MyEff p-tcurve=MyPvsT Daily=MyIrrad TDaily=MyTemp 
New PVSystem.BT98475 bus1=1002443473.1.2.4 phases=1 conn=delta kv=0.22 kva=22.86 pf=1 irrad=0.84 pmpp=22.86 temperature=25 %cutin=0.1 %cutout=0.1 effcurve=MyEff p-tcurve=MyPvsT Daily=MyIrrad TDaily=MyTemp 
New PVSystem.BT98476 bus1=1002443480.1.2.3.4 phases=3 conn=delta kv=0.22 kva=38.1 pf=1 irrad=0.84 pmpp=38.1 temperature=25 %cutin=0.1 %cutout=0.1 effcurve=MyEff p-tcurve=MyPvsT Daily=MyIrrad TDaily=MyTemp 