New load.pip677415-1 phases=1 bus=5008857705.2.3.4 model=2 kv=0.22 kw=0.008027186073059361 pf=0.92 conn=delta status=variable vmaxpu=1.5 vminpu=0.92 daily=IP
New load.pip677415-2 phases=1 bus=5008857705.2.3.4 model=3 kv=0.22 kw=0.008027186073059361 pf=0.92 conn=delta status=variable vmaxpu=1.5 vminpu=0.92 daily=IP

New load.pip681001-1 phases=1 bus=5008857908.1.2.4 model=2 kv=0.22 kw=0.013378190639269408 pf=0.92 conn=delta status=variable vmaxpu=1.5 vminpu=0.92 daily=IP
New load.pip681001-2 phases=1 bus=5008857908.1.2.4 model=3 kv=0.22 kw=0.013378190639269408 pf=0.92 conn=delta status=variable vmaxpu=1.5 vminpu=0.92 daily=IP

New load.pip681389-1 phases=1 bus=5008858189.1.2.4 model=2 kv=0.22 kw=0.008027186073059361 pf=0.92 conn=delta status=variable vmaxpu=1.5 vminpu=0.92 daily=IP
New load.pip681389-2 phases=1 bus=5008858189.1.2.4 model=3 kv=0.22 kw=0.008027186073059361 pf=0.92 conn=delta status=variable vmaxpu=1.5 vminpu=0.92 daily=IP

New load.pip682029-1 phases=1 bus=5008911388.1.2.4 model=2 kv=0.22 kw=0.013378190639269408 pf=0.92 conn=delta status=variable vmaxpu=1.5 vminpu=0.92 daily=IP
New load.pip682029-2 phases=1 bus=5008911388.1.2.4 model=3 kv=0.22 kw=0.013378190639269408 pf=0.92 conn=delta status=variable vmaxpu=1.5 vminpu=0.92 daily=IP

New load.pip683086-1 phases=1 bus=5008857630.1.2.4 model=2 kv=0.22 kw=0.008027186073059361 pf=0.92 conn=delta status=variable vmaxpu=1.5 vminpu=0.92 daily=IP
New load.pip683086-2 phases=1 bus=5008857630.1.2.4 model=3 kv=0.22 kw=0.008027186073059361 pf=0.92 conn=delta status=variable vmaxpu=1.5 vminpu=0.92 daily=IP

New load.pip683455-1 phases=1 bus=5008858827.1.2.4 model=2 kv=0.22 kw=0.01070200913242009 pf=0.92 conn=delta status=variable vmaxpu=1.5 vminpu=0.92 daily=IP
New load.pip683455-2 phases=1 bus=5008858827.1.2.4 model=3 kv=0.22 kw=0.01070200913242009 pf=0.92 conn=delta status=variable vmaxpu=1.5 vminpu=0.92 daily=IP

New load.pip683891-1 phases=1 bus=5008857947.2.3.4 model=2 kv=0.22 kw=0.013378190639269408 pf=0.92 conn=delta status=variable vmaxpu=1.5 vminpu=0.92 daily=IP
New load.pip683891-2 phases=1 bus=5008857947.2.3.4 model=3 kv=0.22 kw=0.013378190639269408 pf=0.92 conn=delta status=variable vmaxpu=1.5 vminpu=0.92 daily=IP

New load.pip684670-1 phases=1 bus=5008911392.3.1.4 model=2 kv=0.22 kw=0.03076687785388128 pf=0.92 conn=delta status=variable vmaxpu=1.5 vminpu=0.92 daily=IP
New load.pip684670-2 phases=1 bus=5008911392.3.1.4 model=3 kv=0.22 kw=0.03076687785388128 pf=0.92 conn=delta status=variable vmaxpu=1.5 vminpu=0.92 daily=IP

New load.pip684902-1 phases=1 bus=5008858637.3.1.4 model=2 kv=0.22 kw=0.008027186073059361 pf=0.92 conn=delta status=variable vmaxpu=1.5 vminpu=0.92 daily=IP
New load.pip684902-2 phases=1 bus=5008858637.3.1.4 model=3 kv=0.22 kw=0.008027186073059361 pf=0.92 conn=delta status=variable vmaxpu=1.5 vminpu=0.92 daily=IP

New load.pip685001-1 phases=1 bus=5000872869.1.2.4 model=2 kv=0.22 kw=0.016318750000000003 pf=0.92 conn=delta status=variable vmaxpu=1.5 vminpu=0.92 daily=IP
New load.pip685001-2 phases=1 bus=5000872869.1.2.4 model=3 kv=0.22 kw=0.016318750000000003 pf=0.92 conn=delta status=variable vmaxpu=1.5 vminpu=0.92 daily=IP

New load.pip685420-1 phases=1 bus=5008858195.3.1.4 model=2 kv=0.22 kw=0.008027186073059361 pf=0.92 conn=delta status=variable vmaxpu=1.5 vminpu=0.92 daily=IP
New load.pip685420-2 phases=1 bus=5008858195.3.1.4 model=3 kv=0.22 kw=0.008027186073059361 pf=0.92 conn=delta status=variable vmaxpu=1.5 vminpu=0.92 daily=IP

New load.pip685808-1 phases=1 bus=5008911386.3.1.4 model=2 kv=0.22 kw=0.013378190639269408 pf=0.92 conn=delta status=variable vmaxpu=1.5 vminpu=0.92 daily=IP
New load.pip685808-2 phases=1 bus=5008911386.3.1.4 model=3 kv=0.22 kw=0.013378190639269408 pf=0.92 conn=delta status=variable vmaxpu=1.5 vminpu=0.92 daily=IP

New load.pip685980-1 phases=1 bus=5008858699.2.3.4 model=2 kv=0.22 kw=0.03076687785388128 pf=0.92 conn=delta status=variable vmaxpu=1.5 vminpu=0.92 daily=IP
New load.pip685980-2 phases=1 bus=5008858699.2.3.4 model=3 kv=0.22 kw=0.03076687785388128 pf=0.92 conn=delta status=variable vmaxpu=1.5 vminpu=0.92 daily=IP

New load.pip687656-1 phases=1 bus=5008911380.1.2.4 model=2 kv=0.22 kw=0.013378190639269408 pf=0.92 conn=delta status=variable vmaxpu=1.5 vminpu=0.92 daily=IP
New load.pip687656-2 phases=1 bus=5008911380.1.2.4 model=3 kv=0.22 kw=0.013378190639269408 pf=0.92 conn=delta status=variable vmaxpu=1.5 vminpu=0.92 daily=IP

New load.pip687796-1 phases=1 bus=5008859038.1.2.4 model=2 kv=0.22 kw=0.01070200913242009 pf=0.92 conn=delta status=variable vmaxpu=1.5 vminpu=0.92 daily=IP
New load.pip687796-2 phases=1 bus=5008859038.1.2.4 model=3 kv=0.22 kw=0.01070200913242009 pf=0.92 conn=delta status=variable vmaxpu=1.5 vminpu=0.92 daily=IP

New load.pip687892-1 phases=1 bus=5008858421.1.2.4 model=2 kv=0.22 kw=0.013378190639269408 pf=0.92 conn=delta status=variable vmaxpu=1.5 vminpu=0.92 daily=IP
New load.pip687892-2 phases=1 bus=5008858421.1.2.4 model=3 kv=0.22 kw=0.013378190639269408 pf=0.92 conn=delta status=variable vmaxpu=1.5 vminpu=0.92 daily=IP

New load.pip688209-1 phases=1 bus=5008858664.1.2.4 model=2 kv=0.22 kw=0.008027186073059361 pf=0.92 conn=delta status=variable vmaxpu=1.5 vminpu=0.92 daily=IP
New load.pip688209-2 phases=1 bus=5008858664.1.2.4 model=3 kv=0.22 kw=0.008027186073059361 pf=0.92 conn=delta status=variable vmaxpu=1.5 vminpu=0.92 daily=IP

New load.pip688927-1 phases=1 bus=5008858742.3.1.4 model=2 kv=0.22 kw=0.008027186073059361 pf=0.92 conn=delta status=variable vmaxpu=1.5 vminpu=0.92 daily=IP
New load.pip688927-2 phases=1 bus=5008858742.3.1.4 model=3 kv=0.22 kw=0.008027186073059361 pf=0.92 conn=delta status=variable vmaxpu=1.5 vminpu=0.92 daily=IP

New load.pip689903-1 phases=1 bus=5008858426.3.1.4 model=2 kv=0.22 kw=0.013378190639269408 pf=0.92 conn=delta status=variable vmaxpu=1.5 vminpu=0.92 daily=IP
New load.pip689903-2 phases=1 bus=5008858426.3.1.4 model=3 kv=0.22 kw=0.013378190639269408 pf=0.92 conn=delta status=variable vmaxpu=1.5 vminpu=0.92 daily=IP

New load.pip690178-1 phases=1 bus=5008858078.1.2.4 model=2 kv=0.22 kw=0.008027186073059361 pf=0.92 conn=delta status=variable vmaxpu=1.5 vminpu=0.92 daily=IP
New load.pip690178-2 phases=1 bus=5008858078.1.2.4 model=3 kv=0.22 kw=0.008027186073059361 pf=0.92 conn=delta status=variable vmaxpu=1.5 vminpu=0.92 daily=IP

New load.pip690193-1 phases=1 bus=5008858630.3.1.4 model=2 kv=0.22 kw=0.008027186073059361 pf=0.92 conn=delta status=variable vmaxpu=1.5 vminpu=0.92 daily=IP
New load.pip690193-2 phases=1 bus=5008858630.3.1.4 model=3 kv=0.22 kw=0.008027186073059361 pf=0.92 conn=delta status=variable vmaxpu=1.5 vminpu=0.92 daily=IP

New load.pip690559-1 phases=1 bus=5000872603.1.2.4 model=2 kv=0.22 kw=0.016318750000000003 pf=0.92 conn=delta status=variable vmaxpu=1.5 vminpu=0.92 daily=IP
New load.pip690559-2 phases=1 bus=5000872603.1.2.4 model=3 kv=0.22 kw=0.016318750000000003 pf=0.92 conn=delta status=variable vmaxpu=1.5 vminpu=0.92 daily=IP

New load.pip693449-1 phases=1 bus=5008910016.1.2.4 model=2 kv=0.22 kw=0.013378190639269408 pf=0.92 conn=delta status=variable vmaxpu=1.5 vminpu=0.92 daily=IP
New load.pip693449-2 phases=1 bus=5008910016.1.2.4 model=3 kv=0.22 kw=0.013378190639269408 pf=0.92 conn=delta status=variable vmaxpu=1.5 vminpu=0.92 daily=IP

New load.pip693880-1 phases=1 bus=5001674222.3.1.4 model=2 kv=0.22 kw=0.01872919520547945 pf=0.92 conn=delta status=variable vmaxpu=1.5 vminpu=0.92 daily=IP
New load.pip693880-2 phases=1 bus=5001674222.3.1.4 model=3 kv=0.22 kw=0.01872919520547945 pf=0.92 conn=delta status=variable vmaxpu=1.5 vminpu=0.92 daily=IP

New load.pip693903-1 phases=1 bus=5008858933.3.1.4 model=2 kv=0.22 kw=0.008027186073059361 pf=0.92 conn=delta status=variable vmaxpu=1.5 vminpu=0.92 daily=IP
New load.pip693903-2 phases=1 bus=5008858933.3.1.4 model=3 kv=0.22 kw=0.008027186073059361 pf=0.92 conn=delta status=variable vmaxpu=1.5 vminpu=0.92 daily=IP

New load.pip694547-1 phases=1 bus=5008858400.1.2.4 model=2 kv=0.22 kw=0.013378190639269408 pf=0.92 conn=delta status=variable vmaxpu=1.5 vminpu=0.92 daily=IP
New load.pip694547-2 phases=1 bus=5008858400.1.2.4 model=3 kv=0.22 kw=0.013378190639269408 pf=0.92 conn=delta status=variable vmaxpu=1.5 vminpu=0.92 daily=IP

New load.pip695325-1 phases=1 bus=5000875452.1.2.4 model=2 kv=0.22 kw=0.01872919520547945 pf=0.92 conn=delta status=variable vmaxpu=1.5 vminpu=0.92 daily=IP
New load.pip695325-2 phases=1 bus=5000875452.1.2.4 model=3 kv=0.22 kw=0.01872919520547945 pf=0.92 conn=delta status=variable vmaxpu=1.5 vminpu=0.92 daily=IP

New load.pip696260-1 phases=1 bus=5008858445.3.1.4 model=2 kv=0.22 kw=0.008027186073059361 pf=0.92 conn=delta status=variable vmaxpu=1.5 vminpu=0.92 daily=IP
New load.pip696260-2 phases=1 bus=5008858445.3.1.4 model=3 kv=0.22 kw=0.008027186073059361 pf=0.92 conn=delta status=variable vmaxpu=1.5 vminpu=0.92 daily=IP

New load.pip696625-1 phases=1 bus=5008857669.1.2.4 model=2 kv=0.22 kw=0.008027186073059361 pf=0.92 conn=delta status=variable vmaxpu=1.5 vminpu=0.92 daily=IP
New load.pip696625-2 phases=1 bus=5008857669.1.2.4 model=3 kv=0.22 kw=0.008027186073059361 pf=0.92 conn=delta status=variable vmaxpu=1.5 vminpu=0.92 daily=IP

New load.pip697936-1 phases=1 bus=5008858326.2.3.4 model=2 kv=0.22 kw=0.008027186073059361 pf=0.92 conn=delta status=variable vmaxpu=1.5 vminpu=0.92 daily=IP
New load.pip697936-2 phases=1 bus=5008858326.2.3.4 model=3 kv=0.22 kw=0.008027186073059361 pf=0.92 conn=delta status=variable vmaxpu=1.5 vminpu=0.92 daily=IP

New load.pip698763-1 phases=1 bus=5008857786.3.1.4 model=2 kv=0.22 kw=0.008027186073059361 pf=0.92 conn=delta status=variable vmaxpu=1.5 vminpu=0.92 daily=IP
New load.pip698763-2 phases=1 bus=5008857786.3.1.4 model=3 kv=0.22 kw=0.008027186073059361 pf=0.92 conn=delta status=variable vmaxpu=1.5 vminpu=0.92 daily=IP

New load.pip698764-1 phases=1 bus=5008857789.1.2.4 model=2 kv=0.22 kw=0.008027186073059361 pf=0.92 conn=delta status=variable vmaxpu=1.5 vminpu=0.92 daily=IP
New load.pip698764-2 phases=1 bus=5008857789.1.2.4 model=3 kv=0.22 kw=0.008027186073059361 pf=0.92 conn=delta status=variable vmaxpu=1.5 vminpu=0.92 daily=IP

New load.pip699697-1 phases=1 bus=5001674712.1.2.4 model=2 kv=0.22 kw=0.02140347602739726 pf=0.92 conn=delta status=variable vmaxpu=1.5 vminpu=0.92 daily=IP
New load.pip699697-2 phases=1 bus=5001674712.1.2.4 model=3 kv=0.22 kw=0.02140347602739726 pf=0.92 conn=delta status=variable vmaxpu=1.5 vminpu=0.92 daily=IP

New load.pip701731-1 phases=1 bus=5008911413.1.2.4 model=2 kv=0.22 kw=0.03076687785388128 pf=0.92 conn=delta status=variable vmaxpu=1.5 vminpu=0.92 daily=IP
New load.pip701731-2 phases=1 bus=5008911413.1.2.4 model=3 kv=0.22 kw=0.03076687785388128 pf=0.92 conn=delta status=variable vmaxpu=1.5 vminpu=0.92 daily=IP

New load.pip701810-1 phases=1 bus=5008859033.2.3.4 model=2 kv=0.22 kw=0.01070200913242009 pf=0.92 conn=delta status=variable vmaxpu=1.5 vminpu=0.92 daily=IP
New load.pip701810-2 phases=1 bus=5008859033.2.3.4 model=3 kv=0.22 kw=0.01070200913242009 pf=0.92 conn=delta status=variable vmaxpu=1.5 vminpu=0.92 daily=IP

New load.pip702692-1 phases=1 bus=5008912204.1.2.4 model=2 kv=0.22 kw=0.01070200913242009 pf=0.92 conn=delta status=variable vmaxpu=1.5 vminpu=0.92 daily=IP
New load.pip702692-2 phases=1 bus=5008912204.1.2.4 model=3 kv=0.22 kw=0.01070200913242009 pf=0.92 conn=delta status=variable vmaxpu=1.5 vminpu=0.92 daily=IP

New load.pip703214-1 phases=1 bus=5008911417.1.2.4 model=2 kv=0.22 kw=0.03076687785388128 pf=0.92 conn=delta status=variable vmaxpu=1.5 vminpu=0.92 daily=IP
New load.pip703214-2 phases=1 bus=5008911417.1.2.4 model=3 kv=0.22 kw=0.03076687785388128 pf=0.92 conn=delta status=variable vmaxpu=1.5 vminpu=0.92 daily=IP

New load.pip703793-1 phases=1 bus=5008858801.3.1.4 model=2 kv=0.22 kw=0.008027186073059361 pf=0.92 conn=delta status=variable vmaxpu=1.5 vminpu=0.92 daily=IP
New load.pip703793-2 phases=1 bus=5008858801.3.1.4 model=3 kv=0.22 kw=0.008027186073059361 pf=0.92 conn=delta status=variable vmaxpu=1.5 vminpu=0.92 daily=IP

New load.pip704153-1 phases=1 bus=5000873058.3.1.4 model=2 kv=0.22 kw=0.02140347602739726 pf=0.92 conn=delta status=variable vmaxpu=1.5 vminpu=0.92 daily=IP
New load.pip704153-2 phases=1 bus=5000873058.3.1.4 model=3 kv=0.22 kw=0.02140347602739726 pf=0.92 conn=delta status=variable vmaxpu=1.5 vminpu=0.92 daily=IP

New load.pip704270-1 phases=1 bus=5000877482.1.2.4 model=2 kv=0.22 kw=0.01872919520547945 pf=0.92 conn=delta status=variable vmaxpu=1.5 vminpu=0.92 daily=IP
New load.pip704270-2 phases=1 bus=5000877482.1.2.4 model=3 kv=0.22 kw=0.01872919520547945 pf=0.92 conn=delta status=variable vmaxpu=1.5 vminpu=0.92 daily=IP

New load.pip704733-1 phases=1 bus=5008911403.3.1.4 model=2 kv=0.22 kw=0.008027186073059361 pf=0.92 conn=delta status=variable vmaxpu=1.5 vminpu=0.92 daily=IP
New load.pip704733-2 phases=1 bus=5008911403.3.1.4 model=3 kv=0.22 kw=0.008027186073059361 pf=0.92 conn=delta status=variable vmaxpu=1.5 vminpu=0.92 daily=IP

New load.pip704922-1 phases=1 bus=5008858452.1.2.4 model=2 kv=0.22 kw=0.008027186073059361 pf=0.92 conn=delta status=variable vmaxpu=1.5 vminpu=0.92 daily=IP
New load.pip704922-2 phases=1 bus=5008858452.1.2.4 model=3 kv=0.22 kw=0.008027186073059361 pf=0.92 conn=delta status=variable vmaxpu=1.5 vminpu=0.92 daily=IP

New load.pip705217-1 phases=1 bus=5008089406.2.3.4 model=2 kv=0.22 kw=0.0401302397260274 pf=0.92 conn=delta status=variable vmaxpu=1.5 vminpu=0.92 daily=IP
New load.pip705217-2 phases=1 bus=5008089406.2.3.4 model=3 kv=0.22 kw=0.0401302397260274 pf=0.92 conn=delta status=variable vmaxpu=1.5 vminpu=0.92 daily=IP

New load.pip705367-1 phases=1 bus=5008858406.2.3.4 model=2 kv=0.22 kw=0.01070200913242009 pf=0.92 conn=delta status=variable vmaxpu=1.5 vminpu=0.92 daily=IP
New load.pip705367-2 phases=1 bus=5008858406.2.3.4 model=3 kv=0.22 kw=0.01070200913242009 pf=0.92 conn=delta status=variable vmaxpu=1.5 vminpu=0.92 daily=IP

New load.pip705472-1 phases=1 bus=5008858328.2.3.4 model=2 kv=0.22 kw=0.008027186073059361 pf=0.92 conn=delta status=variable vmaxpu=1.5 vminpu=0.92 daily=IP
New load.pip705472-2 phases=1 bus=5008858328.2.3.4 model=3 kv=0.22 kw=0.008027186073059361 pf=0.92 conn=delta status=variable vmaxpu=1.5 vminpu=0.92 daily=IP

New load.pip705597-1 phases=1 bus=5000877475.3.1.4 model=2 kv=0.22 kw=0.01872919520547945 pf=0.92 conn=delta status=variable vmaxpu=1.5 vminpu=0.92 daily=IP
New load.pip705597-2 phases=1 bus=5000877475.3.1.4 model=3 kv=0.22 kw=0.01872919520547945 pf=0.92 conn=delta status=variable vmaxpu=1.5 vminpu=0.92 daily=IP

New load.pip705984-1 phases=1 bus=5008910020.2.3.4 model=2 kv=0.22 kw=0.013378190639269408 pf=0.92 conn=delta status=variable vmaxpu=1.5 vminpu=0.92 daily=IP
New load.pip705984-2 phases=1 bus=5008910020.2.3.4 model=3 kv=0.22 kw=0.013378190639269408 pf=0.92 conn=delta status=variable vmaxpu=1.5 vminpu=0.92 daily=IP

New load.pip706049-1 phases=1 bus=5008911408.1.2.4 model=2 kv=0.22 kw=0.013378190639269408 pf=0.92 conn=delta status=variable vmaxpu=1.5 vminpu=0.92 daily=IP
New load.pip706049-2 phases=1 bus=5008911408.1.2.4 model=3 kv=0.22 kw=0.013378190639269408 pf=0.92 conn=delta status=variable vmaxpu=1.5 vminpu=0.92 daily=IP

New load.pip706057-1 phases=1 bus=5008858835.1.2.4 model=2 kv=0.22 kw=0.01070200913242009 pf=0.92 conn=delta status=variable vmaxpu=1.5 vminpu=0.92 daily=IP
New load.pip706057-2 phases=1 bus=5008858835.1.2.4 model=3 kv=0.22 kw=0.01070200913242009 pf=0.92 conn=delta status=variable vmaxpu=1.5 vminpu=0.92 daily=IP

New load.pip706529-1 phases=1 bus=5008857904.1.2.4 model=2 kv=0.22 kw=0.01070200913242009 pf=0.92 conn=delta status=variable vmaxpu=1.5 vminpu=0.92 daily=IP
New load.pip706529-2 phases=1 bus=5008857904.1.2.4 model=3 kv=0.22 kw=0.01070200913242009 pf=0.92 conn=delta status=variable vmaxpu=1.5 vminpu=0.92 daily=IP

New load.pip706629-1 phases=1 bus=5008911007.3.1.4 model=2 kv=0.22 kw=0.01070200913242009 pf=0.92 conn=delta status=variable vmaxpu=1.5 vminpu=0.92 daily=IP
New load.pip706629-2 phases=1 bus=5008911007.3.1.4 model=3 kv=0.22 kw=0.01070200913242009 pf=0.92 conn=delta status=variable vmaxpu=1.5 vminpu=0.92 daily=IP

New load.pip706711-1 phases=1 bus=5008858448.3.1.4 model=2 kv=0.22 kw=0.008027186073059361 pf=0.92 conn=delta status=variable vmaxpu=1.5 vminpu=0.92 daily=IP
New load.pip706711-2 phases=1 bus=5008858448.3.1.4 model=3 kv=0.22 kw=0.008027186073059361 pf=0.92 conn=delta status=variable vmaxpu=1.5 vminpu=0.92 daily=IP

New load.pip706787-1 phases=1 bus=5001674376.1.2.4 model=2 kv=0.22 kw=0.02140347602739726 pf=0.92 conn=delta status=variable vmaxpu=1.5 vminpu=0.92 daily=IP
New load.pip706787-2 phases=1 bus=5001674376.1.2.4 model=3 kv=0.22 kw=0.02140347602739726 pf=0.92 conn=delta status=variable vmaxpu=1.5 vminpu=0.92 daily=IP

New load.pip707148-1 phases=1 bus=5008859206.1.2.4 model=2 kv=0.22 kw=0.008027186073059361 pf=0.92 conn=delta status=variable vmaxpu=1.5 vminpu=0.92 daily=IP
New load.pip707148-2 phases=1 bus=5008859206.1.2.4 model=3 kv=0.22 kw=0.008027186073059361 pf=0.92 conn=delta status=variable vmaxpu=1.5 vminpu=0.92 daily=IP

New load.pip707334-1 phases=1 bus=5008858821.2.3.4 model=2 kv=0.22 kw=0.01070200913242009 pf=0.92 conn=delta status=variable vmaxpu=1.5 vminpu=0.92 daily=IP
New load.pip707334-2 phases=1 bus=5008858821.2.3.4 model=3 kv=0.22 kw=0.01070200913242009 pf=0.92 conn=delta status=variable vmaxpu=1.5 vminpu=0.92 daily=IP

New load.pip707583-1 phases=1 bus=5001674670.2.3.4 model=2 kv=0.22 kw=0.0401302397260274 pf=0.92 conn=delta status=variable vmaxpu=1.5 vminpu=0.92 daily=IP
New load.pip707583-2 phases=1 bus=5001674670.2.3.4 model=3 kv=0.22 kw=0.0401302397260274 pf=0.92 conn=delta status=variable vmaxpu=1.5 vminpu=0.92 daily=IP

New load.pip707815-1 phases=1 bus=5008858556.1.2.4 model=2 kv=0.22 kw=0.008027186073059361 pf=0.92 conn=delta status=variable vmaxpu=1.5 vminpu=0.92 daily=IP
New load.pip707815-2 phases=1 bus=5008858556.1.2.4 model=3 kv=0.22 kw=0.008027186073059361 pf=0.92 conn=delta status=variable vmaxpu=1.5 vminpu=0.92 daily=IP

New load.pip708894-1 phases=1 bus=5001204424.3.1.4 model=2 kv=0.22 kw=0.01872919520547945 pf=0.92 conn=delta status=variable vmaxpu=1.5 vminpu=0.92 daily=IP
New load.pip708894-2 phases=1 bus=5001204424.3.1.4 model=3 kv=0.22 kw=0.01872919520547945 pf=0.92 conn=delta status=variable vmaxpu=1.5 vminpu=0.92 daily=IP

New load.pip709098-1 phases=1 bus=5008858333.1.2.4 model=2 kv=0.22 kw=0.008027186073059361 pf=0.92 conn=delta status=variable vmaxpu=1.5 vminpu=0.92 daily=IP
New load.pip709098-2 phases=1 bus=5008858333.1.2.4 model=3 kv=0.22 kw=0.008027186073059361 pf=0.92 conn=delta status=variable vmaxpu=1.5 vminpu=0.92 daily=IP

New load.pip709293-1 phases=1 bus=5008912063.1.2.4 model=2 kv=0.22 kw=0.01070200913242009 pf=0.92 conn=delta status=variable vmaxpu=1.5 vminpu=0.92 daily=IP
New load.pip709293-2 phases=1 bus=5008912063.1.2.4 model=3 kv=0.22 kw=0.01070200913242009 pf=0.92 conn=delta status=variable vmaxpu=1.5 vminpu=0.92 daily=IP

New load.pip709442-1 phases=1 bus=5008858551.1.2.4 model=2 kv=0.22 kw=0.008027186073059361 pf=0.92 conn=delta status=variable vmaxpu=1.5 vminpu=0.92 daily=IP
New load.pip709442-2 phases=1 bus=5008858551.1.2.4 model=3 kv=0.22 kw=0.008027186073059361 pf=0.92 conn=delta status=variable vmaxpu=1.5 vminpu=0.92 daily=IP

New load.pip709550-1 phases=1 bus=5008857771.2.3.4 model=2 kv=0.22 kw=0.008027186073059361 pf=0.92 conn=delta status=variable vmaxpu=1.5 vminpu=0.92 daily=IP
New load.pip709550-2 phases=1 bus=5008857771.2.3.4 model=3 kv=0.22 kw=0.008027186073059361 pf=0.92 conn=delta status=variable vmaxpu=1.5 vminpu=0.92 daily=IP

New load.pip709730-1 phases=1 bus=5008858069.2.3.4 model=2 kv=0.22 kw=0.008027186073059361 pf=0.92 conn=delta status=variable vmaxpu=1.5 vminpu=0.92 daily=IP
New load.pip709730-2 phases=1 bus=5008858069.2.3.4 model=3 kv=0.22 kw=0.008027186073059361 pf=0.92 conn=delta status=variable vmaxpu=1.5 vminpu=0.92 daily=IP

New load.pip710138-1 phases=1 bus=5009148751.2.3.4 model=2 kv=0.22 kw=0.01872919520547945 pf=0.92 conn=delta status=variable vmaxpu=1.5 vminpu=0.92 daily=IP
New load.pip710138-2 phases=1 bus=5009148751.2.3.4 model=3 kv=0.22 kw=0.01872919520547945 pf=0.92 conn=delta status=variable vmaxpu=1.5 vminpu=0.92 daily=IP

New load.pip710345-1 phases=1 bus=5008860303.1.2.4 model=2 kv=0.22 kw=0.008027186073059361 pf=0.92 conn=delta status=variable vmaxpu=1.5 vminpu=0.92 daily=IP
New load.pip710345-2 phases=1 bus=5008860303.1.2.4 model=3 kv=0.22 kw=0.008027186073059361 pf=0.92 conn=delta status=variable vmaxpu=1.5 vminpu=0.92 daily=IP

New load.pip710625-1 phases=1 bus=5008911410.1.2.4 model=2 kv=0.22 kw=0.01070200913242009 pf=0.92 conn=delta status=variable vmaxpu=1.5 vminpu=0.92 daily=IP
New load.pip710625-2 phases=1 bus=5008911410.1.2.4 model=3 kv=0.22 kw=0.01070200913242009 pf=0.92 conn=delta status=variable vmaxpu=1.5 vminpu=0.92 daily=IP

New load.pip710824-1 phases=1 bus=5008858150.2.3.4 model=2 kv=0.22 kw=0.008027186073059361 pf=0.92 conn=delta status=variable vmaxpu=1.5 vminpu=0.92 daily=IP
New load.pip710824-2 phases=1 bus=5008858150.2.3.4 model=3 kv=0.22 kw=0.008027186073059361 pf=0.92 conn=delta status=variable vmaxpu=1.5 vminpu=0.92 daily=IP

New load.pip710836-1 phases=1 bus=5000871007.1.2.4 model=2 kv=0.22 kw=0.0401302397260274 pf=0.92 conn=delta status=variable vmaxpu=1.5 vminpu=0.92 daily=IP
New load.pip710836-2 phases=1 bus=5000871007.1.2.4 model=3 kv=0.22 kw=0.0401302397260274 pf=0.92 conn=delta status=variable vmaxpu=1.5 vminpu=0.92 daily=IP

New load.pip711043-1 phases=1 bus=5009148709.3.1.4 model=2 kv=0.22 kw=0.01872919520547945 pf=0.92 conn=delta status=variable vmaxpu=1.5 vminpu=0.92 daily=IP
New load.pip711043-2 phases=1 bus=5009148709.3.1.4 model=3 kv=0.22 kw=0.01872919520547945 pf=0.92 conn=delta status=variable vmaxpu=1.5 vminpu=0.92 daily=IP

New load.pip711206-1 phases=1 bus=5008859047.1.2.4 model=2 kv=0.22 kw=0.01070200913242009 pf=0.92 conn=delta status=variable vmaxpu=1.5 vminpu=0.92 daily=IP
New load.pip711206-2 phases=1 bus=5008859047.1.2.4 model=3 kv=0.22 kw=0.01070200913242009 pf=0.92 conn=delta status=variable vmaxpu=1.5 vminpu=0.92 daily=IP

New load.pip711770-1 phases=1 bus=5008911934.1.2.4 model=2 kv=0.22 kw=0.01070200913242009 pf=0.92 conn=delta status=variable vmaxpu=1.5 vminpu=0.92 daily=IP
New load.pip711770-2 phases=1 bus=5008911934.1.2.4 model=3 kv=0.22 kw=0.01070200913242009 pf=0.92 conn=delta status=variable vmaxpu=1.5 vminpu=0.92 daily=IP

New load.pip712189-1 phases=1 bus=5008860306.2.3.4 model=2 kv=0.22 kw=0.008027186073059361 pf=0.92 conn=delta status=variable vmaxpu=1.5 vminpu=0.92 daily=IP
New load.pip712189-2 phases=1 bus=5008860306.2.3.4 model=3 kv=0.22 kw=0.008027186073059361 pf=0.92 conn=delta status=variable vmaxpu=1.5 vminpu=0.92 daily=IP

New load.pip712266-1 phases=1 bus=5008910097.2.3.4 model=2 kv=0.22 kw=0.01070200913242009 pf=0.92 conn=delta status=variable vmaxpu=1.5 vminpu=0.92 daily=IP
New load.pip712266-2 phases=1 bus=5008910097.2.3.4 model=3 kv=0.22 kw=0.01070200913242009 pf=0.92 conn=delta status=variable vmaxpu=1.5 vminpu=0.92 daily=IP

New load.pip712799-1 phases=1 bus=5008858395.3.1.4 model=2 kv=0.22 kw=0.013378190639269408 pf=0.92 conn=delta status=variable vmaxpu=1.5 vminpu=0.92 daily=IP
New load.pip712799-2 phases=1 bus=5008858395.3.1.4 model=3 kv=0.22 kw=0.013378190639269408 pf=0.92 conn=delta status=variable vmaxpu=1.5 vminpu=0.92 daily=IP

New load.pip712832-1 phases=1 bus=5008858160.1.2.4 model=2 kv=0.22 kw=0.008027186073059361 pf=0.92 conn=delta status=variable vmaxpu=1.5 vminpu=0.92 daily=IP
New load.pip712832-2 phases=1 bus=5008858160.1.2.4 model=3 kv=0.22 kw=0.008027186073059361 pf=0.92 conn=delta status=variable vmaxpu=1.5 vminpu=0.92 daily=IP

New load.pip713241-1 phases=1 bus=5008912215.2.3.4 model=2 kv=0.22 kw=0.01070200913242009 pf=0.92 conn=delta status=variable vmaxpu=1.5 vminpu=0.92 daily=IP
New load.pip713241-2 phases=1 bus=5008912215.2.3.4 model=3 kv=0.22 kw=0.01070200913242009 pf=0.92 conn=delta status=variable vmaxpu=1.5 vminpu=0.92 daily=IP

New load.pip713294-1 phases=1 bus=5008858659.3.1.4 model=2 kv=0.22 kw=0.013378190639269408 pf=0.92 conn=delta status=variable vmaxpu=1.5 vminpu=0.92 daily=IP
New load.pip713294-2 phases=1 bus=5008858659.3.1.4 model=3 kv=0.22 kw=0.013378190639269408 pf=0.92 conn=delta status=variable vmaxpu=1.5 vminpu=0.92 daily=IP

New load.pip713377-1 phases=1 bus=5008858868.3.1.4 model=2 kv=0.22 kw=0.01070200913242009 pf=0.92 conn=delta status=variable vmaxpu=1.5 vminpu=0.92 daily=IP
New load.pip713377-2 phases=1 bus=5008858868.3.1.4 model=3 kv=0.22 kw=0.01070200913242009 pf=0.92 conn=delta status=variable vmaxpu=1.5 vminpu=0.92 daily=IP

New load.pip713419-1 phases=1 bus=5008910072.3.1.4 model=2 kv=0.22 kw=0.01070200913242009 pf=0.92 conn=delta status=variable vmaxpu=1.5 vminpu=0.92 daily=IP
New load.pip713419-2 phases=1 bus=5008910072.3.1.4 model=3 kv=0.22 kw=0.01070200913242009 pf=0.92 conn=delta status=variable vmaxpu=1.5 vminpu=0.92 daily=IP

New load.pip713647-1 phases=1 bus=5008857912.3.1.4 model=2 kv=0.22 kw=0.013378190639269408 pf=0.92 conn=delta status=variable vmaxpu=1.5 vminpu=0.92 daily=IP
New load.pip713647-2 phases=1 bus=5008857912.3.1.4 model=3 kv=0.22 kw=0.013378190639269408 pf=0.92 conn=delta status=variable vmaxpu=1.5 vminpu=0.92 daily=IP

New load.pip713912-1 phases=1 bus=5008858798.1.2.4 model=2 kv=0.22 kw=0.008027186073059361 pf=0.92 conn=delta status=variable vmaxpu=1.5 vminpu=0.92 daily=IP
New load.pip713912-2 phases=1 bus=5008858798.1.2.4 model=3 kv=0.22 kw=0.008027186073059361 pf=0.92 conn=delta status=variable vmaxpu=1.5 vminpu=0.92 daily=IP

New load.pip714067-1 phases=1 bus=5008858503.3.1.4 model=2 kv=0.22 kw=0.008027186073059361 pf=0.92 conn=delta status=variable vmaxpu=1.5 vminpu=0.92 daily=IP
New load.pip714067-2 phases=1 bus=5008858503.3.1.4 model=3 kv=0.22 kw=0.008027186073059361 pf=0.92 conn=delta status=variable vmaxpu=1.5 vminpu=0.92 daily=IP

New load.pip714138-1 phases=1 bus=5000877279.1.2.4 model=2 kv=0.22 kw=0.01872919520547945 pf=0.92 conn=delta status=variable vmaxpu=1.5 vminpu=0.92 daily=IP
New load.pip714138-2 phases=1 bus=5000877279.1.2.4 model=3 kv=0.22 kw=0.01872919520547945 pf=0.92 conn=delta status=variable vmaxpu=1.5 vminpu=0.92 daily=IP

New load.pip714543-1 phases=1 bus=5001675104.2.3.4 model=2 kv=0.22 kw=0.0401302397260274 pf=0.92 conn=delta status=variable vmaxpu=1.5 vminpu=0.92 daily=IP
New load.pip714543-2 phases=1 bus=5001675104.2.3.4 model=3 kv=0.22 kw=0.0401302397260274 pf=0.92 conn=delta status=variable vmaxpu=1.5 vminpu=0.92 daily=IP

New load.pip714816-1 phases=1 bus=5008857934.1.2.4 model=2 kv=0.22 kw=0.013378190639269408 pf=0.92 conn=delta status=variable vmaxpu=1.5 vminpu=0.92 daily=IP
New load.pip714816-2 phases=1 bus=5008857934.1.2.4 model=3 kv=0.22 kw=0.013378190639269408 pf=0.92 conn=delta status=variable vmaxpu=1.5 vminpu=0.92 daily=IP

New load.pip715139-1 phases=1 bus=5008912211.3.1.4 model=2 kv=0.22 kw=0.01070200913242009 pf=0.92 conn=delta status=variable vmaxpu=1.5 vminpu=0.92 daily=IP
New load.pip715139-2 phases=1 bus=5008912211.3.1.4 model=3 kv=0.22 kw=0.01070200913242009 pf=0.92 conn=delta status=variable vmaxpu=1.5 vminpu=0.92 daily=IP

New load.pip715200-1 phases=1 bus=5008911313.2.3.4 model=2 kv=0.22 kw=0.03076687785388128 pf=0.92 conn=delta status=variable vmaxpu=1.5 vminpu=0.92 daily=IP
New load.pip715200-2 phases=1 bus=5008911313.2.3.4 model=3 kv=0.22 kw=0.03076687785388128 pf=0.92 conn=delta status=variable vmaxpu=1.5 vminpu=0.92 daily=IP

New load.pip715253-1 phases=1 bus=5000876824.1.2.4 model=2 kv=0.22 kw=0.01872919520547945 pf=0.92 conn=delta status=variable vmaxpu=1.5 vminpu=0.92 daily=IP
New load.pip715253-2 phases=1 bus=5000876824.1.2.4 model=3 kv=0.22 kw=0.01872919520547945 pf=0.92 conn=delta status=variable vmaxpu=1.5 vminpu=0.92 daily=IP

New load.pip715667-1 phases=1 bus=5008858686.3.1.4 model=2 kv=0.22 kw=0.008027186073059361 pf=0.92 conn=delta status=variable vmaxpu=1.5 vminpu=0.92 daily=IP
New load.pip715667-2 phases=1 bus=5008858686.3.1.4 model=3 kv=0.22 kw=0.008027186073059361 pf=0.92 conn=delta status=variable vmaxpu=1.5 vminpu=0.92 daily=IP

New load.pip715733-1 phases=1 bus=5000875970.2.3.4 model=2 kv=0.22 kw=0.01872919520547945 pf=0.92 conn=delta status=variable vmaxpu=1.5 vminpu=0.92 daily=IP
New load.pip715733-2 phases=1 bus=5000875970.2.3.4 model=3 kv=0.22 kw=0.01872919520547945 pf=0.92 conn=delta status=variable vmaxpu=1.5 vminpu=0.92 daily=IP

New load.pip716127-1 phases=1 bus=5001674299.1.2.4 model=2 kv=0.22 kw=0.01872919520547945 pf=0.92 conn=delta status=variable vmaxpu=1.5 vminpu=0.92 daily=IP
New load.pip716127-2 phases=1 bus=5001674299.1.2.4 model=3 kv=0.22 kw=0.01872919520547945 pf=0.92 conn=delta status=variable vmaxpu=1.5 vminpu=0.92 daily=IP

New load.pip716638-1 phases=1 bus=5008858548.2.3.4 model=2 kv=0.22 kw=0.008027186073059361 pf=0.92 conn=delta status=variable vmaxpu=1.5 vminpu=0.92 daily=IP
New load.pip716638-2 phases=1 bus=5008858548.2.3.4 model=3 kv=0.22 kw=0.008027186073059361 pf=0.92 conn=delta status=variable vmaxpu=1.5 vminpu=0.92 daily=IP

New load.pip717009-1 phases=1 bus=5008857810.1.2.4 model=2 kv=0.22 kw=0.008027186073059361 pf=0.92 conn=delta status=variable vmaxpu=1.5 vminpu=0.92 daily=IP
New load.pip717009-2 phases=1 bus=5008857810.1.2.4 model=3 kv=0.22 kw=0.008027186073059361 pf=0.92 conn=delta status=variable vmaxpu=1.5 vminpu=0.92 daily=IP

New load.pip717358-1 phases=1 bus=5008858450.2.3.4 model=2 kv=0.22 kw=0.008027186073059361 pf=0.92 conn=delta status=variable vmaxpu=1.5 vminpu=0.92 daily=IP
New load.pip717358-2 phases=1 bus=5008858450.2.3.4 model=3 kv=0.22 kw=0.008027186073059361 pf=0.92 conn=delta status=variable vmaxpu=1.5 vminpu=0.92 daily=IP
