New line.ram2443361 phases=3 bus1=1810176.2.3.4 bus2=4002443361.2.3.4 length=0.017 units=km linecode=CABBTG05_4_2_3
New line.ram2443368 phases=4 bus1=1810197.1.2.3.4 bus2=4002443368.1.2.3.4 length=0.017 units=km linecode=CABBTG07_4_3_4
New line.ram2443375 phases=4 bus1=1810197.1.2.3.4 bus2=4002443375.1.2.3.4 length=0.017 units=km linecode=CABBTG07_4_3_4
New line.ram2443382 phases=3 bus1=1810197.3.1.4 bus2=4002443382.3.1.4 length=0.017 units=km linecode=CABBTG05_4_2_3
New line.ram2443389 phases=4 bus1=1810197.1.2.3.4 bus2=4002443389.1.2.3.4 length=0.017 units=km linecode=CABBTG07_4_3_4
New line.ram2443396 phases=3 bus1=1810204.2.3.4 bus2=4002443396.2.3.4 length=0.017 units=km linecode=CABBTG05_4_2_3
New line.ram2443403 phases=4 bus1=1810211.1.2.3.4 bus2=4002443403.1.2.3.4 length=0.017 units=km linecode=CABBTG07_4_3_4
New line.ram2443410 phases=3 bus1=1810211.2.3.4 bus2=4002443410.2.3.4 length=0.017 units=km linecode=CABBTG05_4_2_3
New line.ram2443417 phases=3 bus1=1810218.1.2.4 bus2=4002443417.1.2.4 length=0.017 units=km linecode=CABBTG05_4_2_3
New line.ram2443424 phases=4 bus1=1810232.1.2.3.4 bus2=4002443424.1.2.3.4 length=0.017 units=km linecode=CABBTG07_4_3_4
New line.ram2443431 phases=4 bus1=1810239.1.2.3.4 bus2=4002443431.1.2.3.4 length=0.017 units=km linecode=CABBTG07_4_3_4
New line.ram2443438 phases=3 bus1=1810253.2.3.4 bus2=4002443438.2.3.4 length=0.017 units=km linecode=CABBTG05_4_2_3
New line.ram2443445 phases=3 bus1=1810253.3.1.4 bus2=4002443445.3.1.4 length=0.017 units=km linecode=CABBTG05_4_2_3
New line.ram2443452 phases=4 bus1=1810253.1.2.3.4 bus2=4002443452.1.2.3.4 length=0.017 units=km linecode=CABBTG07_4_3_4
New line.ram2443459 phases=3 bus1=1810260.1.2.4 bus2=4002443459.1.2.4 length=0.017 units=km linecode=CABBTG05_4_2_3
New line.ram2443466 phases=3 bus1=1810267.1.2.4 bus2=4002443466.1.2.4 length=0.017 units=km linecode=CABBTG05_4_2_3
New line.ram2443473 phases=3 bus1=1810267.1.2.4 bus2=4002443473.1.2.4 length=0.017 units=km linecode=CABBTG05_4_2_3
New line.ram2443480 phases=4 bus1=1810267.1.2.3.4 bus2=4002443480.1.2.3.4 length=0.017 units=km linecode=CABBTG06_4_3_4
New line.ram2443487 phases=4 bus1=1810267.1.2.3.4 bus2=4002443487.1.2.3.4 length=0.017 units=km linecode=CABBTG07_4_3_4
New line.ram2446987 phases=2 bus1=1812213.1.4 bus2=4002446987.1.4 length=0.017 units=km linecode=CABBTG01_4_1_2
New line.ram2446994 phases=3 bus1=1812220.3.1.4 bus2=4002446994.3.1.4 length=0.017 units=km linecode=CABBTG05_4_2_3
New line.ram2447001 phases=3 bus1=1812220.1.2.4 bus2=4002447001.1.2.4 length=0.017 units=km linecode=CABBTG05_4_2_3
New line.ram2447015 phases=3 bus1=1812241.2.3.4 bus2=4002447015.2.3.4 length=0.017 units=km linecode=CABBTG05_4_2_3
New line.ram2447022 phases=3 bus1=1812241.2.3.4 bus2=4002447022.2.3.4 length=0.017 units=km linecode=CABBTG05_4_2_3
New line.ram2447029 phases=3 bus1=1812241.2.3.4 bus2=4002447029.2.3.4 length=0.017 units=km linecode=CABBTG05_4_2_3
New line.ram2447036 phases=3 bus1=1812248.1.2.4 bus2=4002447036.1.2.4 length=0.017 units=km linecode=CABBTG05_4_2_3
New line.ram2447043 phases=3 bus1=1812248.3.1.4 bus2=4002447043.3.1.4 length=0.017 units=km linecode=CABBTG05_4_2_3
New line.ram2447050 phases=3 bus1=1812248.2.3.4 bus2=4002447050.2.3.4 length=0.017 units=km linecode=CABBTG05_4_2_3
New line.ram2447057 phases=4 bus1=1812255.1.2.3.4 bus2=4002447057.1.2.3.4 length=0.017 units=km linecode=CABBTG07_4_3_4
New line.ram2447064 phases=3 bus1=1812255.3.1.4 bus2=4002447064.3.1.4 length=0.017 units=km linecode=CABBTG05_4_2_3
New line.ram2447071 phases=3 bus1=1812255.2.3.4 bus2=4002447071.2.3.4 length=0.017 units=km linecode=CABBTG05_4_2_3
New line.ram2447085 phases=3 bus1=1812262.1.2.4 bus2=4002447085.1.2.4 length=0.017 units=km linecode=CABBTG05_4_2_3
New line.ram2447092 phases=3 bus1=1812262.3.1.4 bus2=4002447092.3.1.4 length=0.017 units=km linecode=CABBTG05_4_2_3
New line.ram2447099 phases=2 bus1=1812269.3.4 bus2=4002447099.3.4 length=0.017 units=km linecode=CABBTG01_4_1_2
New line.ram2447106 phases=3 bus1=1812276.3.1.4 bus2=4002447106.3.1.4 length=0.017 units=km linecode=CABBTG05_4_2_3
New line.ram2447113 phases=3 bus1=1812283.3.1.4 bus2=4002447113.3.1.4 length=0.017 units=km linecode=CABBTG05_4_2_3
New line.ram2447120 phases=3 bus1=1812290.1.2.4 bus2=4002447120.1.2.4 length=0.017 units=km linecode=CABBTG05_4_2_3
New line.ram2447127 phases=2 bus1=1812290.2.4 bus2=4002447127.2.4 length=0.017 units=km linecode=CABBTG01_4_1_2
New line.ram2447134 phases=3 bus1=1812290.1.2.4 bus2=4002447134.1.2.4 length=0.017 units=km linecode=CABBTG05_4_2_3
New line.ram2447141 phases=3 bus1=1812290.1.2.4 bus2=4002447141.1.2.4 length=0.017 units=km linecode=CABBTG05_4_2_3
New line.ram2447155 phases=2 bus1=1812318.1.4 bus2=4002447155.1.4 length=0.017 units=km linecode=CABBTG01_4_1_2
New line.ram2447162 phases=2 bus1=1812325.1.4 bus2=4002447162.1.4 length=0.017 units=km linecode=CABBTG01_4_1_2
New line.ram2447169 phases=3 bus1=1812332.2.3.4 bus2=4002447169.2.3.4 length=0.017 units=km linecode=CABBTG05_4_2_3
New line.ram2447176 phases=3 bus1=1812339.2.3.4 bus2=4002447176.2.3.4 length=0.017 units=km linecode=CABBTG05_4_2_3
New line.ram2447183 phases=2 bus1=1812339.3.4 bus2=4002447183.3.4 length=0.017 units=km linecode=CABBTG01_4_1_2
New line.ram2447190 phases=3 bus1=1812353.2.3.4 bus2=4002447190.2.3.4 length=0.017 units=km linecode=CABBTG05_4_2_3
New line.ram2447197 phases=3 bus1=1812353.3.1.4 bus2=4002447197.3.1.4 length=0.017 units=km linecode=CABBTG05_4_2_3
New line.ram2447204 phases=3 bus1=1812353.2.3.4 bus2=4002447204.2.3.4 length=0.017 units=km linecode=CABBTG05_4_2_3
New line.ram2447211 phases=3 bus1=1812360.1.2.4 bus2=4002447211.1.2.4 length=0.017 units=km linecode=CABBTG05_4_2_3
New line.ram2447218 phases=3 bus1=1812360.2.3.4 bus2=4002447218.2.3.4 length=0.017 units=km linecode=CABBTG05_4_2_3
New line.ram2447225 phases=3 bus1=1812374.3.1.4 bus2=4002447225.3.1.4 length=0.017 units=km linecode=CABBTG04_4_2_3
New line.ram2447232 phases=2 bus1=1812374.3.4 bus2=4002447232.3.4 length=0.017 units=km linecode=CABBTG01_4_1_2
New line.ram2447239 phases=3 bus1=1812381.1.2.4 bus2=4002447239.1.2.4 length=0.017 units=km linecode=CABBTG05_4_2_3
New line.ram2447246 phases=3 bus1=1812381.1.2.4 bus2=4002447246.1.2.4 length=0.017 units=km linecode=CABBTG05_4_2_3
New line.ram2447253 phases=4 bus1=1812381.1.2.3.4 bus2=4002447253.1.2.3.4 length=0.017 units=km linecode=CABBTG07_4_3_4
New line.ram2447260 phases=4 bus1=1812381.1.2.3.4 bus2=4002447260.1.2.3.4 length=0.017 units=km linecode=CABBTG07_4_3_4
New line.ram2447267 phases=3 bus1=1812388.1.2.4 bus2=4002447267.1.2.4 length=0.017 units=km linecode=CABBTG05_4_2_3
New line.ram2447274 phases=4 bus1=1812395.1.2.3.4 bus2=4002447274.1.2.3.4 length=0.017 units=km linecode=CABBTG07_4_3_4
New line.ram2447281 phases=3 bus1=1812402.1.2.4 bus2=4002447281.1.2.4 length=0.017 units=km linecode=CABBTG05_4_2_3
New line.ram2447288 phases=3 bus1=1812402.3.1.4 bus2=4002447288.3.1.4 length=0.017 units=km linecode=CABBTG05_4_2_3
New line.ram2447295 phases=3 bus1=1812402.2.3.4 bus2=4002447295.2.3.4 length=0.017 units=km linecode=CABBTG05_4_2_3
New line.ram2447302 phases=3 bus1=1812409.1.2.4 bus2=4002447302.1.2.4 length=0.017 units=km linecode=CABBTG05_4_2_3
New line.ram2447309 phases=3 bus1=1812409.3.1.4 bus2=4002447309.3.1.4 length=0.017 units=km linecode=CABBTG05_4_2_3
New line.ram2447316 phases=3 bus1=1812437.1.2.4 bus2=4002447316.1.2.4 length=0.017 units=km linecode=CABBTG05_4_2_3
New line.ram2447323 phases=3 bus1=1812437.2.3.4 bus2=4002447323.2.3.4 length=0.017 units=km linecode=CABBTG05_4_2_3
New line.ram2447330 phases=2 bus1=1812451.3.4 bus2=4002447330.3.4 length=0.017 units=km linecode=CABBTG01_4_1_2
New line.ram2447337 phases=3 bus1=1812444.1.2.4 bus2=4002447337.1.2.4 length=0.017 units=km linecode=CABBTG05_4_2_3
New line.ram2447344 phases=2 bus1=1812451.2.4 bus2=4002447344.2.4 length=0.017 units=km linecode=CABBTG01_4_1_2
New line.ram2447351 phases=3 bus1=1812451.1.2.4 bus2=4002447351.1.2.4 length=0.017 units=km linecode=CABBTG05_4_2_3
New line.ram2447358 phases=2 bus1=1812458.2.4 bus2=4002447358.2.4 length=0.017 units=km linecode=CABBTG01_4_1_2
New line.ram2447365 phases=3 bus1=1812458.1.2.4 bus2=4002447365.1.2.4 length=0.017 units=km linecode=CABBTG05_4_2_3
New line.ram2447372 phases=4 bus1=1812458.1.2.3.4 bus2=4002447372.1.2.3.4 length=0.017 units=km linecode=CABBTG07_4_3_4
New line.ram2447379 phases=2 bus1=1812465.1.4 bus2=4002447379.1.4 length=0.017 units=km linecode=CABBTG01_4_1_2
New line.ram2447386 phases=2 bus1=1812465.2.4 bus2=4002447386.2.4 length=0.017 units=km linecode=CABBTG01_4_1_2
New line.ram2447393 phases=3 bus1=1812465.2.3.4 bus2=4002447393.2.3.4 length=0.017 units=km linecode=CABBTG05_4_2_3
New line.ram2447400 phases=3 bus1=1812465.1.2.4 bus2=4002447400.1.2.4 length=0.017 units=km linecode=CABBTG05_4_2_3
New line.ram2447407 phases=2 bus1=1812472.1.4 bus2=4002447407.1.4 length=0.017 units=km linecode=CABBTG01_4_1_2
New line.ram2447414 phases=3 bus1=1812472.2.3.4 bus2=4002447414.2.3.4 length=0.017 units=km linecode=CABBTG05_4_2_3
New line.ram2447421 phases=2 bus1=1812472.1.4 bus2=4002447421.1.4 length=0.017 units=km linecode=CABBTG01_4_1_2
New line.ram2447428 phases=2 bus1=1812472.1.4 bus2=4002447428.1.4 length=0.017 units=km linecode=CABBTG01_4_1_2
New line.ram2447435 phases=3 bus1=1812479.1.2.4 bus2=4002447435.1.2.4 length=0.017 units=km linecode=CABBTG05_4_2_3
New line.ram2447442 phases=3 bus1=1812479.1.2.4 bus2=4002447442.1.2.4 length=0.017 units=km linecode=CABBTG05_4_2_3
New line.ram2447449 phases=3 bus1=1812479.1.2.4 bus2=4002447449.1.2.4 length=0.017 units=km linecode=CABBTG05_4_2_3
New line.ram2447456 phases=2 bus1=1812486.3.4 bus2=4002447456.3.4 length=0.017 units=km linecode=CABBTG01_4_1_2
New line.ram2447470 phases=3 bus1=1812500.1.2.4 bus2=4002447470.1.2.4 length=0.017 units=km linecode=CABBTG05_4_2_3
New line.ram2447477 phases=4 bus1=1812493.1.2.3.4 bus2=4002447477.1.2.3.4 length=0.017 units=km linecode=CABBTG06_4_3_4
New line.ram2447491 phases=2 bus1=1812514.3.4 bus2=4002447491.3.4 length=0.017 units=km linecode=CABBTG01_4_1_2
New line.ram2447498 phases=3 bus1=1812514.3.1.4 bus2=4002447498.3.1.4 length=0.017 units=km linecode=CABBTG05_4_2_3
New line.ram2447505 phases=2 bus1=1812521.1.4 bus2=4002447505.1.4 length=0.017 units=km linecode=CABBTG01_4_1_2
New line.ram2447512 phases=2 bus1=1812521.3.4 bus2=4002447512.3.4 length=0.017 units=km linecode=CABBTG01_4_1_2
New line.ram2447778 phases=3 bus1=1812626.2.3.4 bus2=4002447778.2.3.4 length=0.017 units=km linecode=CABBTG05_4_2_3
New line.ram2447785 phases=2 bus1=1812626.1.4 bus2=4002447785.1.4 length=0.017 units=km linecode=CABBTG01_4_1_2
New line.ram2447792 phases=4 bus1=1812626.1.2.3.4 bus2=4002447792.1.2.3.4 length=0.017 units=km linecode=CABBTG07_4_3_4
New line.ram2447799 phases=3 bus1=1812633.3.1.4 bus2=4002447799.3.1.4 length=0.017 units=km linecode=CABBTG05_4_2_3
New line.ram2447806 phases=3 bus1=1812633.1.2.4 bus2=4002447806.1.2.4 length=0.017 units=km linecode=CABBTG05_4_2_3
New line.ram2447813 phases=3 bus1=1812633.2.3.4 bus2=4002447813.2.3.4 length=0.017 units=km linecode=CABBTG05_4_2_3
New line.ram2447820 phases=2 bus1=1812640.1.4 bus2=4002447820.1.4 length=0.017 units=km linecode=CABBTG01_4_1_2
New line.ram2447827 phases=3 bus1=1812640.2.3.4 bus2=4002447827.2.3.4 length=0.017 units=km linecode=CABBTG05_4_2_3
New line.ram2447834 phases=4 bus1=1812640.1.2.3.4 bus2=4002447834.1.2.3.4 length=0.017 units=km linecode=CABBTG07_4_3_4
New line.ram2447841 phases=4 bus1=1812640.1.2.3.4 bus2=4002447841.1.2.3.4 length=0.017 units=km linecode=CABBTG07_4_3_4
New line.ram2447848 phases=4 bus1=1812640.1.2.3.4 bus2=4002447848.1.2.3.4 length=0.017 units=km linecode=CABBTG07_4_3_4
New line.ram2447862 phases=3 bus1=1812647.1.2.4 bus2=4002447862.1.2.4 length=0.017 units=km linecode=CABBTG05_4_2_3
New line.ram2447869 phases=2 bus1=1812661.1.4 bus2=4002447869.1.4 length=0.017 units=km linecode=CABBTG01_4_1_2
New line.ram2447876 phases=3 bus1=1812661.2.3.4 bus2=4002447876.2.3.4 length=0.017 units=km linecode=CABBTG05_4_2_3
New line.ram2447883 phases=2 bus1=1812661.1.4 bus2=4002447883.1.4 length=0.017 units=km linecode=CABBTG01_4_1_2
New line.ram2447890 phases=3 bus1=1812661.1.2.4 bus2=4002447890.1.2.4 length=0.017 units=km linecode=CABBTG05_4_2_3
New line.ram2447897 phases=2 bus1=1813200.3.4 bus2=4002447897.3.4 length=0.017 units=km linecode=CABBTG01_4_1_2
New line.ram2447904 phases=3 bus1=1812668.2.3.4 bus2=4002447904.2.3.4 length=0.017 units=km linecode=CABBTG05_4_2_3
New line.ram2447911 phases=2 bus1=1812668.3.4 bus2=4002447911.3.4 length=0.017 units=km linecode=CABBTG01_4_1_2
New line.ram2447918 phases=3 bus1=1812675.2.3.4 bus2=4002447918.2.3.4 length=0.017 units=km linecode=CABBTG05_4_2_3
New line.ram2447925 phases=3 bus1=1812675.2.3.4 bus2=4002447925.2.3.4 length=0.017 units=km linecode=CABBTG05_4_2_3
New line.ram2447932 phases=3 bus1=1812689.3.1.4 bus2=4002447932.3.1.4 length=0.017 units=km linecode=CABBTG05_4_2_3
New line.ram2447939 phases=3 bus1=1812689.2.3.4 bus2=4002447939.2.3.4 length=0.017 units=km linecode=CABBTG05_4_2_3
New line.ram2447946 phases=3 bus1=1812696.1.2.4 bus2=4002447946.1.2.4 length=0.017 units=km linecode=CABBTG05_4_2_3
New line.ram2447953 phases=2 bus1=1812703.2.4 bus2=4002447953.2.4 length=0.017 units=km linecode=CABBTG01_4_1_2
New line.ram2448198 phases=3 bus1=1812857.1.2.4 bus2=4002448198.1.2.4 length=0.017 units=km linecode=CABBTG05_4_2_3
New line.ram2448205 phases=4 bus1=1812857.1.2.3.4 bus2=4002448205.1.2.3.4 length=0.017 units=km linecode=CABBTG07_4_3_4
New line.ram2448212 phases=3 bus1=1812290.1.2.4 bus2=4002448212.1.2.4 length=0.017 units=km linecode=CABBTG05_4_2_3
New line.ram2448219 phases=3 bus1=1812878.2.3.4 bus2=4002448219.2.3.4 length=0.017 units=km linecode=CABBTG05_4_2_3
New line.ram2448226 phases=2 bus1=1812878.3.4 bus2=4002448226.3.4 length=0.017 units=km linecode=CABBTG01_4_1_2
New line.ram2448233 phases=3 bus1=1812885.2.3.4 bus2=4002448233.2.3.4 length=0.017 units=km linecode=CABBTG05_4_2_3
New line.ram2448240 phases=3 bus1=1812885.1.2.4 bus2=4002448240.1.2.4 length=0.017 units=km linecode=CABBTG05_4_2_3
New line.ram2448247 phases=3 bus1=1812885.1.2.4 bus2=4002448247.1.2.4 length=0.017 units=km linecode=CABBTG05_4_2_3
New line.ram2448254 phases=3 bus1=1812892.1.2.4 bus2=4002448254.1.2.4 length=0.017 units=km linecode=CABBTG05_4_2_3
New line.ram2448261 phases=3 bus1=1812892.2.3.4 bus2=4002448261.2.3.4 length=0.017 units=km linecode=CABBTG05_4_2_3
New line.ram2448268 phases=3 bus1=1812892.3.1.4 bus2=4002448268.3.1.4 length=0.017 units=km linecode=CABBTG05_4_2_3
New line.ram2448275 phases=3 bus1=1812892.1.2.4 bus2=4002448275.1.2.4 length=0.017 units=km linecode=CABBTG05_4_2_3
New line.ram2448282 phases=3 bus1=1812899.1.2.4 bus2=4002448282.1.2.4 length=0.017 units=km linecode=CABBTG05_4_2_3
New line.ram2448289 phases=2 bus1=1812899.3.4 bus2=4002448289.3.4 length=0.017 units=km linecode=CABBTG01_4_1_2
New line.ram2448296 phases=3 bus1=1812899.3.1.4 bus2=4002448296.3.1.4 length=0.017 units=km linecode=CABBTG05_4_2_3
New line.ram2448303 phases=3 bus1=1812899.3.1.4 bus2=4002448303.3.1.4 length=0.017 units=km linecode=CABBTG05_4_2_3
New line.ram2448310 phases=4 bus1=1812899.1.2.3.4 bus2=4002448310.1.2.3.4 length=0.017 units=km linecode=CABBTG06_4_3_4
New line.ram2448317 phases=4 bus1=1812899.1.2.3.4 bus2=4002448317.1.2.3.4 length=0.017 units=km linecode=CABBTG07_4_3_4
New line.ram2448324 phases=3 bus1=1812899.1.2.4 bus2=4002448324.1.2.4 length=0.017 units=km linecode=CABBTG05_4_2_3
New line.ram2448331 phases=3 bus1=1812906.3.1.4 bus2=4002448331.3.1.4 length=0.017 units=km linecode=CABBTG05_4_2_3
New line.ram2448338 phases=4 bus1=1812906.1.2.3.4 bus2=4002448338.1.2.3.4 length=0.017 units=km linecode=CABBTG11_4_3_4
New line.ram2448345 phases=2 bus1=1812906.3.4 bus2=4002448345.3.4 length=0.017 units=km linecode=CABBTG01_4_1_2
New line.ram2448352 phases=3 bus1=1812906.3.1.4 bus2=4002448352.3.1.4 length=0.017 units=km linecode=CABBTG05_4_2_3
New line.ram2448359 phases=4 bus1=1812906.1.2.3.4 bus2=4002448359.1.2.3.4 length=0.017 units=km linecode=CABBTG06_4_3_4
New line.ram2448366 phases=4 bus1=1812906.1.2.3.4 bus2=4002448366.1.2.3.4 length=0.017 units=km linecode=CABBTG06_4_3_4
New line.ram2448373 phases=3 bus1=1812913.1.2.4 bus2=4002448373.1.2.4 length=0.017 units=km linecode=CABBTG05_4_2_3
New line.ram2448380 phases=3 bus1=1812913.2.3.4 bus2=4002448380.2.3.4 length=0.017 units=km linecode=CABBTG05_4_2_3
New line.ram2448387 phases=3 bus1=1812913.3.1.4 bus2=4002448387.3.1.4 length=0.017 units=km linecode=CABBTG05_4_2_3
New line.ram2448394 phases=3 bus1=1812913.2.3.4 bus2=4002448394.2.3.4 length=0.017 units=km linecode=CABBTG05_4_2_3
New line.ram2448401 phases=4 bus1=1812913.1.2.3.4 bus2=4002448401.1.2.3.4 length=0.017 units=km linecode=CABBTG07_4_3_4
New line.ram2448408 phases=3 bus1=1812913.1.2.4 bus2=4002448408.1.2.4 length=0.017 units=km linecode=CABBTG05_4_2_3
New line.ram2448415 phases=4 bus1=1812920.1.2.3.4 bus2=4002448415.1.2.3.4 length=0.017 units=km linecode=CABBTG07_4_3_4
New line.ram2448422 phases=3 bus1=1812920.2.3.4 bus2=4002448422.2.3.4 length=0.017 units=km linecode=CABBTG05_4_2_3
New line.ram2448429 phases=3 bus1=1812920.1.2.4 bus2=4002448429.1.2.4 length=0.017 units=km linecode=CABBTG05_4_2_3
New line.ram2448436 phases=3 bus1=1812920.1.2.4 bus2=4002448436.1.2.4 length=0.017 units=km linecode=CABBTG05_4_2_3
New line.ram2448443 phases=2 bus1=1812920.3.4 bus2=4002448443.3.4 length=0.017 units=km linecode=CABBTG01_4_1_2
New line.ram2448457 phases=3 bus1=1812927.2.3.4 bus2=4002448457.2.3.4 length=0.017 units=km linecode=CABBTG05_4_2_3
New line.ram2448464 phases=3 bus1=1812927.3.1.4 bus2=4002448464.3.1.4 length=0.017 units=km linecode=CABBTG05_4_2_3
New line.ram2448471 phases=3 bus1=1812927.2.3.4 bus2=4002448471.2.3.4 length=0.017 units=km linecode=CABBTG05_4_2_3
New line.ram2448478 phases=2 bus1=1812927.2.4 bus2=4002448478.2.4 length=0.017 units=km linecode=CABBTG01_4_1_2
New line.ram2448485 phases=3 bus1=1812864.1.2.4 bus2=4002448485.1.2.4 length=0.017 units=km linecode=CABBTG05_4_2_3
New line.ram2448492 phases=3 bus1=1812934.1.2.4 bus2=4002448492.1.2.4 length=0.017 units=km linecode=CABBTG05_4_2_3
New line.ram2448506 phases=3 bus1=1812948.1.2.4 bus2=4002448506.1.2.4 length=0.017 units=km linecode=CABBTG05_4_2_3
New line.ram2448513 phases=3 bus1=1812948.3.1.4 bus2=4002448513.3.1.4 length=0.017 units=km linecode=CABBTG05_4_2_3
New line.ram2448520 phases=3 bus1=1812948.1.2.4 bus2=4002448520.1.2.4 length=0.017 units=km linecode=CABBTG05_4_2_3
New line.ram2448527 phases=2 bus1=1812962.2.4 bus2=4002448527.2.4 length=0.017 units=km linecode=CABBTG01_4_1_2
New line.ram2448534 phases=3 bus1=1812969.3.1.4 bus2=4002448534.3.1.4 length=0.017 units=km linecode=CABBTG05_4_2_3
New line.ram2448541 phases=3 bus1=1812969.3.1.4 bus2=4002448541.3.1.4 length=0.017 units=km linecode=CABBTG05_4_2_3
New line.ram2448548 phases=3 bus1=1812983.1.2.4 bus2=4002448548.1.2.4 length=0.017 units=km linecode=CABBTG05_4_2_3
New line.ram2448555 phases=2 bus1=1812983.2.4 bus2=4002448555.2.4 length=0.017 units=km linecode=CABBTG01_4_1_2
New line.ram2448562 phases=2 bus1=1812983.3.4 bus2=4002448562.3.4 length=0.017 units=km linecode=CABBTG01_4_1_2
New line.ram2448569 phases=2 bus1=1812983.1.4 bus2=4002448569.1.4 length=0.017 units=km linecode=CABBTG01_4_1_2
New line.ram2448576 phases=2 bus1=1812983.1.4 bus2=4002448576.1.4 length=0.017 units=km linecode=CABBTG01_4_1_2
New line.ram2448583 phases=3 bus1=1812983.3.1.4 bus2=4002448583.3.1.4 length=0.017 units=km linecode=CABBTG05_4_2_3
New line.ram2448590 phases=3 bus1=1812983.1.2.4 bus2=4002448590.1.2.4 length=0.017 units=km linecode=CABBTG05_4_2_3
New line.ram2448597 phases=3 bus1=1812990.3.1.4 bus2=4002448597.3.1.4 length=0.017 units=km linecode=CABBTG05_4_2_3
New line.ram2448604 phases=2 bus1=1812990.3.4 bus2=4002448604.3.4 length=0.017 units=km linecode=CABBTG01_4_1_2
New line.ram2448611 phases=2 bus1=1812990.2.4 bus2=4002448611.2.4 length=0.017 units=km linecode=CABBTG01_4_1_2
New line.ram2448618 phases=3 bus1=1812990.2.3.4 bus2=4002448618.2.3.4 length=0.017 units=km linecode=CABBTG05_4_2_3
New line.ram2448625 phases=3 bus1=1812990.3.1.4 bus2=4002448625.3.1.4 length=0.017 units=km linecode=CABBTG05_4_2_3
New line.ram2448632 phases=4 bus1=1812990.1.2.3.4 bus2=4002448632.1.2.3.4 length=0.017 units=km linecode=CABBTG07_4_3_4
New line.ram2448639 phases=2 bus1=1812997.1.4 bus2=4002448639.1.4 length=0.017 units=km linecode=CABBTG01_4_1_2
New line.ram2448646 phases=3 bus1=1812997.3.1.4 bus2=4002448646.3.1.4 length=0.017 units=km linecode=CABBTG05_4_2_3
New line.ram2448653 phases=3 bus1=1813004.1.2.4 bus2=4002448653.1.2.4 length=0.017 units=km linecode=CABBTG05_4_2_3
New line.ram2448660 phases=3 bus1=1813004.3.1.4 bus2=4002448660.3.1.4 length=0.017 units=km linecode=CABBTG05_4_2_3
New line.ram2448667 phases=2 bus1=1813004.3.4 bus2=4002448667.3.4 length=0.017 units=km linecode=CABBTG01_4_1_2
New line.ram2448674 phases=3 bus1=1813004.1.2.4 bus2=4002448674.1.2.4 length=0.017 units=km linecode=CABBTG05_4_2_3
New line.ram2448681 phases=3 bus1=1813004.2.3.4 bus2=4002448681.2.3.4 length=0.017 units=km linecode=CABBTG05_4_2_3
New line.ram2448688 phases=2 bus1=1813004.3.4 bus2=4002448688.3.4 length=0.017 units=km linecode=CABBTG01_4_1_2
New line.ram2448695 phases=3 bus1=1813004.2.3.4 bus2=4002448695.2.3.4 length=0.017 units=km linecode=CABBTG05_4_2_3
New line.ram2448702 phases=2 bus1=1813011.3.4 bus2=4002448702.3.4 length=0.017 units=km linecode=CABBTG01_4_1_2
New line.ram2448709 phases=3 bus1=1813011.2.3.4 bus2=4002448709.2.3.4 length=0.017 units=km linecode=CABBTG05_4_2_3
New line.ram2448716 phases=2 bus1=1813011.2.4 bus2=4002448716.2.4 length=0.017 units=km linecode=CABBTG01_4_1_2
New line.ram2448723 phases=3 bus1=1813011.2.3.4 bus2=4002448723.2.3.4 length=0.017 units=km linecode=CABBTG05_4_2_3
New line.ram2448730 phases=3 bus1=1813011.1.2.4 bus2=4002448730.1.2.4 length=0.017 units=km linecode=CABBTG05_4_2_3
New line.ram2448737 phases=3 bus1=1813018.3.1.4 bus2=4002448737.3.1.4 length=0.017 units=km linecode=CABBTG05_4_2_3
New line.ram2448744 phases=3 bus1=1813018.1.2.4 bus2=4002448744.1.2.4 length=0.017 units=km linecode=CABBTG05_4_2_3
New line.ram2448751 phases=3 bus1=1813018.1.2.4 bus2=4002448751.1.2.4 length=0.017 units=km linecode=CABBTG05_4_2_3
New line.ram2448758 phases=2 bus1=1813018.1.4 bus2=4002448758.1.4 length=0.017 units=km linecode=CABBTG01_4_1_2
New line.ram2448765 phases=3 bus1=1813018.3.1.4 bus2=4002448765.3.1.4 length=0.017 units=km linecode=CABBTG05_4_2_3
New line.ram2448772 phases=3 bus1=1813018.2.3.4 bus2=4002448772.2.3.4 length=0.017 units=km linecode=CABBTG05_4_2_3
New line.ram2448779 phases=3 bus1=1813018.3.1.4 bus2=4002448779.3.1.4 length=0.017 units=km linecode=CABBTG05_4_2_3
New line.ram2448786 phases=3 bus1=1813018.2.3.4 bus2=4002448786.2.3.4 length=0.017 units=km linecode=CABBTG05_4_2_3
New line.ram2448793 phases=3 bus1=1813025.3.1.4 bus2=4002448793.3.1.4 length=0.017 units=km linecode=CABBTG05_4_2_3
New line.ram2448800 phases=2 bus1=1813025.1.4 bus2=4002448800.1.4 length=0.017 units=km linecode=CABBTG01_4_1_2
New line.ram2448814 phases=3 bus1=1813025.1.2.4 bus2=4002448814.1.2.4 length=0.017 units=km linecode=CABBTG05_4_2_3
New line.ram2448821 phases=3 bus1=1813025.2.3.4 bus2=4002448821.2.3.4 length=0.017 units=km linecode=CABBTG05_4_2_3
New line.ram2448828 phases=3 bus1=1813025.1.2.4 bus2=4002448828.1.2.4 length=0.017 units=km linecode=CABBTG05_4_2_3
New line.ram2448835 phases=2 bus1=1813032.2.4 bus2=4002448835.2.4 length=0.017 units=km linecode=CABBTG01_4_1_2
New line.ram2448842 phases=3 bus1=1813032.2.3.4 bus2=4002448842.2.3.4 length=0.017 units=km linecode=CABBTG05_4_2_3
New line.ram2448849 phases=3 bus1=1813032.3.1.4 bus2=4002448849.3.1.4 length=0.017 units=km linecode=CABBTG05_4_2_3
New line.ram2448856 phases=4 bus1=1813039.1.2.3.4 bus2=4002448856.1.2.3.4 length=0.017 units=km linecode=CABBTG07_4_3_4
New line.ram2448863 phases=3 bus1=1813039.2.3.4 bus2=4002448863.2.3.4 length=0.017 units=km linecode=CABBTG05_4_2_3
New line.ram2448870 phases=3 bus1=1813039.1.2.4 bus2=4002448870.1.2.4 length=0.017 units=km linecode=CABBTG05_4_2_3
New line.ram2448877 phases=2 bus1=1813046.1.4 bus2=4002448877.1.4 length=0.017 units=km linecode=CABBTG01_4_1_2
New line.ram2448884 phases=2 bus1=1813046.3.4 bus2=4002448884.3.4 length=0.017 units=km linecode=CABBTG01_4_1_2
New line.ram2448891 phases=3 bus1=1813053.2.3.4 bus2=4002448891.2.3.4 length=0.017 units=km linecode=CABBTG05_4_2_3
New line.ram2449115 phases=3 bus1=1813193.3.1.4 bus2=4002449115.3.1.4 length=0.017 units=km linecode=CABBTG05_4_2_3
New line.ram2449122 phases=3 bus1=1813193.1.2.4 bus2=4002449122.1.2.4 length=0.017 units=km linecode=CABBTG05_4_2_3
New line.ram2449129 phases=2 bus1=1812696.1.4 bus2=4002449129.1.4 length=0.017 units=km linecode=CABBTG01_4_1_2
New line.ram2449136 phases=2 bus1=1813193.3.4 bus2=4002449136.3.4 length=0.017 units=km linecode=CABBTG01_4_1_2
New line.ram2449143 phases=3 bus1=1813193.2.3.4 bus2=4002449143.2.3.4 length=0.017 units=km linecode=CABBTG05_4_2_3
New line.ram2449150 phases=3 bus1=1813200.2.3.4 bus2=4002449150.2.3.4 length=0.017 units=km linecode=CABBTG05_4_2_3
New line.ram2449157 phases=3 bus1=1813200.3.1.4 bus2=4002449157.3.1.4 length=0.017 units=km linecode=CABBTG05_4_2_3
New line.ram2449164 phases=3 bus1=1813214.2.3.4 bus2=4002449164.2.3.4 length=0.017 units=km linecode=CABBTG05_4_2_3
New line.ram2449171 phases=2 bus1=1813214.2.4 bus2=4002449171.2.4 length=0.017 units=km linecode=CABBTG01_4_1_2
New line.ram2449178 phases=3 bus1=1813214.1.2.4 bus2=4002449178.1.2.4 length=0.017 units=km linecode=CABBTG05_4_2_3
New line.ram2449185 phases=3 bus1=1813214.2.3.4 bus2=4002449185.2.3.4 length=0.017 units=km linecode=CABBTG05_4_2_3
New line.ram2449192 phases=3 bus1=1813214.2.3.4 bus2=4002449192.2.3.4 length=0.017 units=km linecode=CABBTG05_4_2_3
New line.ram2449199 phases=2 bus1=1813214.2.4 bus2=4002449199.2.4 length=0.017 units=km linecode=CABBTG01_4_1_2
New line.ram2449206 phases=2 bus1=1813221.3.4 bus2=4002449206.3.4 length=0.017 units=km linecode=CABBTG01_4_1_2
New line.ram2449213 phases=3 bus1=1813221.3.1.4 bus2=4002449213.3.1.4 length=0.017 units=km linecode=CABBTG05_4_2_3
New line.ram2449220 phases=3 bus1=1813221.1.2.4 bus2=4002449220.1.2.4 length=0.017 units=km linecode=CABBTG05_4_2_3
New line.ram2449227 phases=3 bus1=1813221.1.2.4 bus2=4002449227.1.2.4 length=0.017 units=km linecode=CABBTG05_4_2_3
New line.ram2449234 phases=3 bus1=1813228.1.2.4 bus2=4002449234.1.2.4 length=0.017 units=km linecode=CABBTG05_4_2_3
New line.ram2449241 phases=3 bus1=1813228.2.3.4 bus2=4002449241.2.3.4 length=0.017 units=km linecode=CABBTG05_4_2_3
New line.ram2449248 phases=3 bus1=1813228.1.2.4 bus2=4002449248.1.2.4 length=0.017 units=km linecode=CABBTG05_4_2_3
New line.ram2449255 phases=3 bus1=1813228.1.2.4 bus2=4002449255.1.2.4 length=0.017 units=km linecode=CABBTG05_4_2_3
New line.ram2449262 phases=3 bus1=1813228.3.1.4 bus2=4002449262.3.1.4 length=0.017 units=km linecode=CABBTG05_4_2_3
New line.ram2449269 phases=4 bus1=1813228.1.2.3.4 bus2=4002449269.1.2.3.4 length=0.017 units=km linecode=CABBTG06_4_3_4
New line.ram2449276 phases=4 bus1=1813228.1.2.3.4 bus2=4002449276.1.2.3.4 length=0.017 units=km linecode=CABBTG07_4_3_4
New line.ram2449283 phases=3 bus1=1813228.1.2.4 bus2=4002449283.1.2.4 length=0.017 units=km linecode=CABBTG05_4_2_3
New line.ram2449290 phases=3 bus1=1813235.3.1.4 bus2=4002449290.3.1.4 length=0.017 units=km linecode=CABBTG05_4_2_3
New line.ram2449297 phases=3 bus1=1813235.2.3.4 bus2=4002449297.2.3.4 length=0.017 units=km linecode=CABBTG05_4_2_3
New line.ram2449304 phases=4 bus1=1813235.1.2.3.4 bus2=4002449304.1.2.3.4 length=0.017 units=km linecode=CABBTG06_4_3_4
New line.ram2449311 phases=3 bus1=1813235.3.1.4 bus2=4002449311.3.1.4 length=0.017 units=km linecode=CABBTG05_4_2_3
New line.ram2449318 phases=2 bus1=1813235.3.4 bus2=4002449318.3.4 length=0.017 units=km linecode=CABBTG01_4_1_2
New line.ram2449325 phases=3 bus1=1813242.1.2.4 bus2=4002449325.1.2.4 length=0.017 units=km linecode=CABBTG05_4_2_3
New line.ram2449332 phases=2 bus1=1813242.1.4 bus2=4002449332.1.4 length=0.017 units=km linecode=CABBTG01_4_1_2
New line.ram2449339 phases=3 bus1=1813242.2.3.4 bus2=4002449339.2.3.4 length=0.017 units=km linecode=CABBTG05_4_2_3
New line.ram2449346 phases=2 bus1=1813242.3.4 bus2=4002449346.3.4 length=0.017 units=km linecode=CABBTG01_4_1_2
New line.ram2449353 phases=3 bus1=1813242.2.3.4 bus2=4002449353.2.3.4 length=0.017 units=km linecode=CABBTG05_4_2_3
New line.ram2449360 phases=3 bus1=1813242.1.2.4 bus2=4002449360.1.2.4 length=0.017 units=km linecode=CABBTG05_4_2_3
New line.ram2449367 phases=3 bus1=1813249.3.1.4 bus2=4002449367.3.1.4 length=0.017 units=km linecode=CABBTG05_4_2_3
New line.ram2449374 phases=3 bus1=1813249.1.2.4 bus2=4002449374.1.2.4 length=0.017 units=km linecode=CABBTG05_4_2_3
New line.ram2449381 phases=3 bus1=1813249.3.1.4 bus2=4002449381.3.1.4 length=0.017 units=km linecode=CABBTG05_4_2_3
New line.ram2449388 phases=3 bus1=1813249.3.1.4 bus2=4002449388.3.1.4 length=0.017 units=km linecode=CABBTG05_4_2_3
New line.ram2449395 phases=2 bus1=1813249.2.4 bus2=4002449395.2.4 length=0.017 units=km linecode=CABBTG01_4_1_2
New line.ram2449402 phases=3 bus1=1813249.1.2.4 bus2=4002449402.1.2.4 length=0.017 units=km linecode=CABBTG05_4_2_3
New line.ram2449409 phases=3 bus1=1813249.1.2.4 bus2=4002449409.1.2.4 length=0.017 units=km linecode=CABBTG05_4_2_3
New line.ram2449416 phases=3 bus1=1813256.3.1.4 bus2=4002449416.3.1.4 length=0.017 units=km linecode=CABBTG05_4_2_3
New line.ram2449423 phases=4 bus1=1813256.1.2.3.4 bus2=4002449423.1.2.3.4 length=0.017 units=km linecode=CABBTG06_4_3_4