New transformer.400145 phases=3 xhl=3.64 %r=1.67 windings=2 %loadloss=1.6666666666666667 %noloadloss=0.43333333333333335
~ wdg=1 bus=172219450.1.2.3 kv=13.8 kva=30 tap=1 conn=delta
~ wdg=2 bus=1837385.1.2.3.4 kv=0.22 kva=30 tap=1 conn=wye
New Reactor.TF400145 phases=1 bus1=1837385.4 R=15 X=0 basefreq=60

New transformer.400075 phases=3 xhl=3.7 %r=1.52 windings=2 %loadloss=1.5222222222222221 %noloadloss=0.37777777777777777
~ wdg=1 bus=172219457.1.2.3 kv=13.8 kva=45 tap=1 conn=delta
~ wdg=2 bus=1836475.1.2.3.4 kv=0.22 kva=45 tap=1 conn=wye
New Reactor.TF400075 phases=1 bus1=1836475.4 R=15 X=0 basefreq=60

New transformer.400082 phases=3 xhl=3.64 %r=1.67 windings=2 %loadloss=1.6666666666666667 %noloadloss=0.43333333333333335
~ wdg=1 bus=178110149.1.2.3 kv=13.8 kva=30 tap=1 conn=delta
~ wdg=2 bus=1836601.1.2.3.4 kv=0.22 kva=30 tap=1 conn=wye
New Reactor.TF400082 phases=1 bus1=1836601.4 R=15 X=0 basefreq=60

New transformer.400271 phases=3 xhl=3.7 %r=1.52 windings=2 %loadloss=1.5222222222222221 %noloadloss=0.37777777777777777
~ wdg=1 bus=148645400.1.2.3 kv=13.8 kva=45 tap=1 conn=delta
~ wdg=2 bus=1838827.1.2.3.4 kv=0.22 kva=45 tap=1 conn=wye
New Reactor.TF400271 phases=1 bus1=1838827.4 R=15 X=0 basefreq=60

New transformer.400110 phases=3 xhl=3.7 %r=1.52 windings=2 %loadloss=1.5222222222222221 %noloadloss=0.37777777777777777
~ wdg=1 bus=172219462.1.2.3 kv=13.8 kva=45 tap=1 conn=delta
~ wdg=2 bus=1837000.1.2.3.4 kv=0.22 kva=45 tap=1 conn=wye
New Reactor.TF400110 phases=1 bus1=1837000.4 R=15 X=0 basefreq=60

New transformer.400194 phases=3 xhl=3.77 %r=1.34 windings=2 %loadloss=1.34 %noloadloss=0.34
~ wdg=1 bus=156303160.1.2.3 kv=13.8 kva=75 tap=1 conn=delta
~ wdg=2 bus=1837938.1.2.3.4 kv=0.22 kva=75 tap=1 conn=wye
New Reactor.TF400194 phases=1 bus1=1837938.4 R=15 X=0 basefreq=60

New transformer.397702 phases=3 xhl=3.7 %r=1.52 windings=2 %loadloss=1.5222222222222221 %noloadloss=0.37777777777777777
~ wdg=1 bus=178238933.1.2.3 kv=13.8 kva=45 tap=1 conn=delta
~ wdg=2 bus=1809945.1.2.3.4 kv=0.22 kva=45 tap=1 conn=wye
New Reactor.TF397702 phases=1 bus1=1809945.4 R=15 X=0 basefreq=60

New transformer.400208 phases=3 xhl=3.64 %r=1.67 windings=2 %loadloss=1.6666666666666667 %noloadloss=0.43333333333333335
~ wdg=1 bus=172219453.1.2.3 kv=13.8 kva=30 tap=1 conn=delta
~ wdg=2 bus=1838183.1.2.3.4 kv=0.22 kva=30 tap=1 conn=wye
New Reactor.TF400208 phases=1 bus1=1838183.4 R=15 X=0 basefreq=60

New transformer.400334 phases=3 xhl=3.64 %r=1.67 windings=2 %loadloss=1.6666666666666667 %noloadloss=0.43333333333333335
~ wdg=1 bus=172219456.1.2.3 kv=13.8 kva=30 tap=1 conn=delta
~ wdg=2 bus=1839576.1.2.3.4 kv=0.22 kva=30 tap=1 conn=wye
New Reactor.TF400334 phases=1 bus1=1839576.4 R=15 X=0 basefreq=60

New transformer.400432 phases=3 xhl=3.7 %r=1.52 windings=2 %loadloss=1.5222222222222221 %noloadloss=0.37777777777777777
~ wdg=1 bus=172219460.1.2.3 kv=13.8 kva=45 tap=1 conn=delta
~ wdg=2 bus=1840647.1.2.3.4 kv=0.22 kva=45 tap=1 conn=wye
New Reactor.TF400432 phases=1 bus1=1840647.4 R=15 X=0 basefreq=60

New transformer.400341 phases=3 xhl=3.7 %r=1.52 windings=2 %loadloss=1.5222222222222221 %noloadloss=0.37777777777777777
~ wdg=1 bus=126435992.1.2.3 kv=13.8 kva=45 tap=1 conn=delta
~ wdg=2 bus=1839639.1.2.3.4 kv=0.22 kva=45 tap=1 conn=wye
New Reactor.TF400341 phases=1 bus1=1839639.4 R=15 X=0 basefreq=60

New transformer.397499 phases=3 xhl=3.84 %r=1.13 windings=2 %loadloss=1.1266666666666667 %noloadloss=0.28
~ wdg=1 bus=126434697.1.2.3 kv=13.8 kva=150 tap=1 conn=delta
~ wdg=2 bus=1808720.1.2.3.4 kv=0.22 kva=150 tap=1 conn=wye
New Reactor.TF397499 phases=1 bus1=1808720.4 R=15 X=0 basefreq=60

New transformer.400509 phases=3 xhl=3.7 %r=1.52 windings=2 %loadloss=1.5222222222222221 %noloadloss=0.37777777777777777
~ wdg=1 bus=172219464.1.2.3 kv=13.8 kva=45 tap=1 conn=delta
~ wdg=2 bus=1841627.1.2.3.4 kv=0.22 kva=45 tap=1 conn=wye
New Reactor.TF400509 phases=1 bus1=1841627.4 R=15 X=0 basefreq=60

New transformer.398192 phases=3 xhl=3.77 %r=1.34 windings=2 %loadloss=1.34 %noloadloss=0.34
~ wdg=1 bus=159845415.1.2.3 kv=13.8 kva=75 tap=1 conn=delta
~ wdg=2 bus=1813494.1.2.3.4 kv=0.22 kva=75 tap=1 conn=wye
New Reactor.TF398192 phases=1 bus1=1813494.4 R=15 X=0 basefreq=60

New transformer.398255 phases=3 xhl=3.64 %r=1.67 windings=2 %loadloss=1.6666666666666667 %noloadloss=0.43333333333333335
~ wdg=1 bus=126434809.1.2.3 kv=13.8 kva=30 tap=1 conn=delta
~ wdg=2 bus=1814187.1.2.3.4 kv=0.22 kva=30 tap=1 conn=wye
New Reactor.TF398255 phases=1 bus1=1814187.4 R=15 X=0 basefreq=60

New transformer.398094 phases=3 xhl=3.64 %r=1.67 windings=2 %loadloss=1.6666666666666667 %noloadloss=0.43333333333333335
~ wdg=1 bus=126434830.1.2.3 kv=13.8 kva=30 tap=1 conn=delta
~ wdg=2 bus=1812311.1.2.3.4 kv=0.22 kva=30 tap=1 conn=wye
New Reactor.TF398094 phases=1 bus1=1812311.4 R=15 X=0 basefreq=60

New transformer.400880 phases=3 xhl=3.64 %r=1.67 windings=2 %loadloss=1.6666666666666667 %noloadloss=0.43333333333333335
~ wdg=1 bus=126436027.1.2.3 kv=13.8 kva=30 tap=1 conn=delta
~ wdg=2 bus=1846464.1.2.3.4 kv=0.22 kva=30 tap=1 conn=wye
New Reactor.TF400880 phases=1 bus1=1846464.4 R=15 X=0 basefreq=60

New transformer.398388 phases=3 xhl=3.7 %r=1.52 windings=2 %loadloss=1.5222222222222221 %noloadloss=0.37777777777777777
~ wdg=1 bus=126435061.1.2.3 kv=13.8 kva=45 tap=1 conn=delta
~ wdg=2 bus=1815902.1.2.3.4 kv=0.22 kva=45 tap=1 conn=wye
New Reactor.TF398388 phases=1 bus1=1815902.4 R=15 X=0 basefreq=60

New transformer.397863 phases=3 xhl=3.7 %r=1.52 windings=2 %loadloss=1.5222222222222221 %noloadloss=0.37777777777777777
~ wdg=1 bus=181076240.1.2.3 kv=13.8 kva=45 tap=1 conn=delta
~ wdg=2 bus=1810729.1.2.3.4 kv=0.22 kva=45 tap=1 conn=wye
New Reactor.TF397863 phases=1 bus1=1810729.4 R=15 X=0 basefreq=60

New transformer.400586 phases=3 xhl=3.7 %r=1.52 windings=2 %loadloss=1.5222222222222221 %noloadloss=0.37777777777777777
~ wdg=1 bus=165379369.1.2.3 kv=13.8 kva=45 tap=1 conn=delta
~ wdg=2 bus=1842810.1.2.3.4 kv=0.22 kva=45 tap=1 conn=wye
New Reactor.TF400586 phases=1 bus1=1842810.4 R=15 X=0 basefreq=60

New transformer.398171 phases=3 xhl=3.7 %r=1.52 windings=2 %loadloss=1.5222222222222221 %noloadloss=0.37777777777777777
~ wdg=1 bus=179669241.1.2.3 kv=13.8 kva=45 tap=1 conn=delta
~ wdg=2 bus=1813284.1.2.3.4 kv=0.22 kva=45 tap=1 conn=wye
New Reactor.TF398171 phases=1 bus1=1813284.4 R=15 X=0 basefreq=60

New transformer.397632 phases=3 xhl=3.48 %r=1.97 windings=2 %loadloss=1.9666666666666666 %noloadloss=0.5
~ wdg=1 bus=157915551.1.2.3 kv=13.8 kva=15 tap=1 conn=delta
~ wdg=2 bus=1809469.1.2.3.4 kv=0.22 kva=15 tap=1 conn=wye
New Reactor.TF397632 phases=1 bus1=1809469.4 R=15 X=0 basefreq=60

New transformer.545983 phases=3 xhl=3.64 %r=1.67 windings=2 %loadloss=1.6666666666666667 %noloadloss=0.43333333333333335
~ wdg=1 bus=158675268.1.2.3 kv=13.8 kva=30 tap=1 conn=delta
~ wdg=2 bus=3164522.1.2.3.4 kv=0.22 kva=30 tap=1 conn=wye
New Reactor.TF545983 phases=1 bus1=3164522.4 R=15 X=0 basefreq=60

New transformer.398297 phases=3 xhl=3.77 %r=1.34 windings=2 %loadloss=1.34 %noloadloss=0.34
~ wdg=1 bus=126435012.1.2.3 kv=13.8 kva=75 tap=1 conn=delta
~ wdg=2 bus=1814670.1.2.3.4 kv=0.22 kva=75 tap=1 conn=wye
New Reactor.TF398297 phases=1 bus1=1814670.4 R=15 X=0 basefreq=60

New transformer.400733 phases=3 xhl=3.7 %r=1.52 windings=2 %loadloss=1.5222222222222221 %noloadloss=0.37777777777777777
~ wdg=1 bus=126436020.1.2.3 kv=13.8 kva=45 tap=1 conn=delta
~ wdg=2 bus=1844672.1.2.3.4 kv=0.22 kva=45 tap=1 conn=wye
New Reactor.TF400733 phases=1 bus1=1844672.4 R=15 X=0 basefreq=60

New transformer.398521 phases=3 xhl=3.7 %r=1.52 windings=2 %loadloss=1.5222222222222221 %noloadloss=0.37777777777777777
~ wdg=1 bus=126433409.1.2.3 kv=13.8 kva=45 tap=1 conn=delta
~ wdg=2 bus=1817365.1.2.3.4 kv=0.22 kva=45 tap=1 conn=wye
New Reactor.TF398521 phases=1 bus1=1817365.4 R=15 X=0 basefreq=60

New transformer.398143 phases=3 xhl=3.7 %r=1.52 windings=2 %loadloss=1.5222222222222221 %noloadloss=0.37777777777777777
~ wdg=1 bus=126435040.1.2.3 kv=13.8 kva=45 tap=1 conn=delta
~ wdg=2 bus=1812955.1.2.3.4 kv=0.22 kva=45 tap=1 conn=wye
New Reactor.TF398143 phases=1 bus1=1812955.4 R=15 X=0 basefreq=60

New transformer.398185 phases=3 xhl=3.7 %r=1.52 windings=2 %loadloss=1.5222222222222221 %noloadloss=0.37777777777777777
~ wdg=1 bus=174216361.1.2.3 kv=13.8 kva=45 tap=1 conn=delta
~ wdg=2 bus=1813375.1.2.3.4 kv=0.22 kva=45 tap=1 conn=wye
New Reactor.TF398185 phases=1 bus1=1813375.4 R=15 X=0 basefreq=60

New transformer.398136 phases=3 xhl=3.7 %r=1.52 windings=2 %loadloss=1.5222222222222221 %noloadloss=0.37777777777777777
~ wdg=1 bus=159845417.1.2.3 kv=13.8 kva=45 tap=1 conn=delta
~ wdg=2 bus=1812850.1.2.3.4 kv=0.22 kva=45 tap=1 conn=wye
New Reactor.TF398136 phases=1 bus1=1812850.4 R=15 X=0 basefreq=60

New transformer.398318 phases=3 xhl=3.7 %r=1.52 windings=2 %loadloss=1.5222222222222221 %noloadloss=0.37777777777777777
~ wdg=1 bus=179443663.1.2.3 kv=13.8 kva=45 tap=1 conn=delta
~ wdg=2 bus=1814922.1.2.3.4 kv=0.22 kva=45 tap=1 conn=wye
New Reactor.TF398318 phases=1 bus1=1814922.4 R=15 X=0 basefreq=60

New transformer.398248 phases=3 xhl=3.64 %r=1.67 windings=2 %loadloss=1.6666666666666667 %noloadloss=0.43333333333333335
~ wdg=1 bus=126435187.1.2.3 kv=13.8 kva=30 tap=1 conn=delta
~ wdg=2 bus=1814082.1.2.3.4 kv=0.22 kva=30 tap=1 conn=wye
New Reactor.TF398248 phases=1 bus1=1814082.4 R=15 X=0 basefreq=60

New transformer.398164 phases=3 xhl=3.77 %r=1.34 windings=2 %loadloss=1.34 %noloadloss=0.34
~ wdg=1 bus=126435159.1.2.3 kv=13.8 kva=75 tap=1 conn=delta
~ wdg=2 bus=1813186.1.2.3.4 kv=0.22 kva=75 tap=1 conn=wye
New Reactor.TF398164 phases=1 bus1=1813186.4 R=15 X=0 basefreq=60

New transformer.398101 phases=3 xhl=3.64 %r=1.67 windings=2 %loadloss=1.6666666666666667 %noloadloss=0.43333333333333335
~ wdg=1 bus=174216366.1.2.3 kv=13.8 kva=30 tap=1 conn=delta
~ wdg=2 bus=1812416.1.2.3.4 kv=0.22 kva=30 tap=1 conn=wye
New Reactor.TF398101 phases=1 bus1=1812416.4 R=15 X=0 basefreq=60

New transformer.398234 phases=3 xhl=3.77 %r=1.34 windings=2 %loadloss=1.34 %noloadloss=0.34
~ wdg=1 bus=126435026.1.2.3 kv=13.8 kva=75 tap=1 conn=delta
~ wdg=2 bus=1813851.1.2.3.4 kv=0.22 kva=75 tap=1 conn=wye
New Reactor.TF398234 phases=1 bus1=1813851.4 R=15 X=0 basefreq=60

New transformer.398339 phases=3 xhl=3.77 %r=1.34 windings=2 %loadloss=1.34 %noloadloss=0.34
~ wdg=1 bus=126435131.1.2.3 kv=13.8 kva=75 tap=1 conn=delta
~ wdg=2 bus=1815377.1.2.3.4 kv=0.22 kva=75 tap=1 conn=wye
New Reactor.TF398339 phases=1 bus1=1815377.4 R=15 X=0 basefreq=60

New transformer.400782 phases=3 xhl=3.77 %r=1.34 windings=2 %loadloss=1.34 %noloadloss=0.34
~ wdg=1 bus=126436034.1.2.3 kv=13.8 kva=75 tap=1 conn=delta
~ wdg=2 bus=1845239.1.2.3.4 kv=0.22 kva=75 tap=1 conn=wye
New Reactor.TF400782 phases=1 bus1=1845239.4 R=15 X=0 basefreq=60

New transformer.398115 phases=3 xhl=3.64 %r=1.67 windings=2 %loadloss=1.6666666666666667 %noloadloss=0.43333333333333335
~ wdg=1 bus=126435166.1.2.3 kv=13.8 kva=30 tap=1 conn=delta
~ wdg=2 bus=1812612.1.2.3.4 kv=0.22 kva=30 tap=1 conn=wye
New Reactor.TF398115 phases=1 bus1=1812612.4 R=15 X=0 basefreq=60

New transformer.398199 phases=3 xhl=3.7 %r=1.52 windings=2 %loadloss=1.5222222222222221 %noloadloss=0.37777777777777777
~ wdg=1 bus=126435194.1.2.3 kv=13.8 kva=45 tap=1 conn=delta
~ wdg=2 bus=1813599.1.2.3.4 kv=0.22 kva=45 tap=1 conn=wye
New Reactor.TF398199 phases=1 bus1=1813599.4 R=15 X=0 basefreq=60

New transformer.398276 phases=3 xhl=3.7 %r=1.52 windings=2 %loadloss=1.5222222222222221 %noloadloss=0.37777777777777777
~ wdg=1 bus=159845413.1.2.3 kv=13.8 kva=45 tap=1 conn=delta
~ wdg=2 bus=1814432.1.2.3.4 kv=0.22 kva=45 tap=1 conn=wye
New Reactor.TF398276 phases=1 bus1=1814432.4 R=15 X=0 basefreq=60

New transformer.397744 phases=3 xhl=3.7 %r=1.52 windings=2 %loadloss=1.5222222222222221 %noloadloss=0.37777777777777777
~ wdg=1 bus=158675263.1.2.3 kv=13.8 kva=45 tap=1 conn=delta
~ wdg=2 bus=1810169.1.2.3.4 kv=0.22 kva=45 tap=1 conn=wye
New Reactor.TF397744 phases=1 bus1=1810169.4 R=15 X=0 basefreq=60

New transformer.398080 phases=3 xhl=3.77 %r=1.34 windings=2 %loadloss=1.34 %noloadloss=0.34
~ wdg=1 bus=159845418.1.2.3 kv=13.8 kva=75 tap=1 conn=delta
~ wdg=2 bus=1812199.1.2.3.4 kv=0.22 kva=75 tap=1 conn=wye
New Reactor.TF398080 phases=1 bus1=1812199.4 R=15 X=0 basefreq=60

New transformer.398262 phases=3 xhl=3.7 %r=1.52 windings=2 %loadloss=1.5222222222222221 %noloadloss=0.37777777777777777
~ wdg=1 bus=126435145.1.2.3 kv=13.8 kva=45 tap=1 conn=delta
~ wdg=2 bus=1814236.1.2.3.4 kv=0.22 kva=45 tap=1 conn=wye
New Reactor.TF398262 phases=1 bus1=1814236.4 R=15 X=0 basefreq=60

New transformer.398528 phases=3 xhl=3.7 %r=1.52 windings=2 %loadloss=1.5222222222222221 %noloadloss=0.37777777777777777
~ wdg=1 bus=180590387.1.2.3 kv=13.8 kva=45 tap=1 conn=delta
~ wdg=2 bus=1817421.1.2.3.4 kv=0.22 kva=45 tap=1 conn=wye
New Reactor.TF398528 phases=1 bus1=1817421.4 R=15 X=0 basefreq=60

New transformer.398542 phases=3 xhl=3.77 %r=1.34 windings=2 %loadloss=1.34 %noloadloss=0.34
~ wdg=1 bus=127616983.1.2.3 kv=13.8 kva=75 tap=1 conn=delta
~ wdg=2 bus=1817519.1.2.3.4 kv=0.22 kva=75 tap=1 conn=wye
New Reactor.TF398542 phases=1 bus1=1817519.4 R=15 X=0 basefreq=60

New transformer.397716 phases=3 xhl=3.64 %r=1.67 windings=2 %loadloss=1.6666666666666667 %noloadloss=0.43333333333333335
~ wdg=1 bus=158675267.1.2.3 kv=13.8 kva=30 tap=1 conn=delta
~ wdg=2 bus=1810022.1.2.3.4 kv=0.22 kva=30 tap=1 conn=wye
New Reactor.TF397716 phases=1 bus1=1810022.4 R=15 X=0 basefreq=60

New transformer.398514 phases=3 xhl=3.7 %r=1.52 windings=2 %loadloss=1.5222222222222221 %noloadloss=0.37777777777777777
~ wdg=1 bus=126435068.1.2.3 kv=13.8 kva=45 tap=1 conn=delta
~ wdg=2 bus=1817281.1.2.3.4 kv=0.22 kva=45 tap=1 conn=wye
New Reactor.TF398514 phases=1 bus1=1817281.4 R=15 X=0 basefreq=60

New transformer.1543588 phases=3 xhl=3.77 %r=1.34 windings=2 %loadloss=1.34 %noloadloss=0.34
~ wdg=1 bus=181155857.1.2.3 kv=13.8 kva=75 tap=1 conn=delta
~ wdg=2 bus=181155812.1.2.3.4 kv=0.22 kva=75 tap=1 conn=wye
New Reactor.TF1543588 phases=1 bus1=181155812.4 R=15 X=0 basefreq=60

New transformer.1056971 phases=3 xhl=3.7 %r=1.52 windings=2 %loadloss=1.5222222222222221 %noloadloss=0.37777777777777777
~ wdg=1 bus=127616969.1.2.3 kv=13.8 kva=45 tap=1 conn=delta
~ wdg=2 bus=127604467.1.2.3.4 kv=0.22 kva=45 tap=1 conn=wye
New Reactor.TF1056971 phases=1 bus1=127604467.4 R=15 X=0 basefreq=60

New transformer.398360 phases=3 xhl=3.77 %r=1.34 windings=2 %loadloss=1.34 %noloadloss=0.34
~ wdg=1 bus=181155858.1.2.3 kv=13.8 kva=75 tap=1 conn=delta
~ wdg=2 bus=1815594.1.2.3.4 kv=0.22 kva=75 tap=1 conn=wye
New Reactor.TF398360 phases=1 bus1=1815594.4 R=15 X=0 basefreq=60

New transformer.398584 phases=3 xhl=3.77 %r=1.34 windings=2 %loadloss=1.34 %noloadloss=0.34
~ wdg=1 bus=126433759.1.2.3 kv=13.8 kva=75 tap=1 conn=delta
~ wdg=2 bus=1818219.1.2.3.4 kv=0.22 kva=75 tap=1 conn=wye
New Reactor.TF398584 phases=1 bus1=1818219.4 R=15 X=0 basefreq=60

New transformer.398465 phases=3 xhl=3.64 %r=1.67 windings=2 %loadloss=1.6666666666666667 %noloadloss=0.43333333333333335
~ wdg=1 bus=167122103.1.2.3 kv=13.8 kva=30 tap=1 conn=delta
~ wdg=2 bus=1816777.1.2.3.4 kv=0.22 kva=30 tap=1 conn=wye
New Reactor.TF398465 phases=1 bus1=1816777.4 R=15 X=0 basefreq=60

New transformer.1061444 phases=3 xhl=3.77 %r=1.34 windings=2 %loadloss=1.34 %noloadloss=0.34
~ wdg=1 bus=150638997.1.2.3 kv=13.8 kva=75 tap=1 conn=delta
~ wdg=2 bus=129590836.1.2.3.4 kv=0.22 kva=75 tap=1 conn=wye
New Reactor.TF1061444 phases=1 bus1=129590836.4 R=15 X=0 basefreq=60

New transformer.1474274 phases=3 xhl=3.77 %r=1.34 windings=2 %loadloss=1.34 %noloadloss=0.34
~ wdg=1 bus=167122098.1.2.3 kv=13.8 kva=75 tap=1 conn=delta
~ wdg=2 bus=167122104.1.2.3.4 kv=0.22 kva=75 tap=1 conn=wye
New Reactor.TF1474274 phases=1 bus1=167122104.4 R=15 X=0 basefreq=60

New transformer.398570 phases=3 xhl=3.77 %r=1.34 windings=2 %loadloss=1.34 %noloadloss=0.34
~ wdg=1 bus=126433801.1.2.3 kv=13.8 kva=75 tap=1 conn=delta
~ wdg=2 bus=1817967.1.2.3.4 kv=0.22 kva=75 tap=1 conn=wye
New Reactor.TF398570 phases=1 bus1=1817967.4 R=15 X=0 basefreq=60

New transformer.398556 phases=3 xhl=3.64 %r=1.67 windings=2 %loadloss=1.6666666666666667 %noloadloss=0.43333333333333335
~ wdg=1 bus=127616997.1.2.3 kv=13.8 kva=30 tap=1 conn=delta
~ wdg=2 bus=1817764.1.2.3.4 kv=0.22 kva=30 tap=1 conn=wye
New Reactor.TF398556 phases=1 bus1=1817764.4 R=15 X=0 basefreq=60

New transformer.398598 phases=3 xhl=3.77 %r=1.34 windings=2 %loadloss=1.34 %noloadloss=0.34
~ wdg=1 bus=126433885.1.2.3 kv=13.8 kva=75 tap=1 conn=delta
~ wdg=2 bus=1818457.1.2.3.4 kv=0.22 kva=75 tap=1 conn=wye
New Reactor.TF398598 phases=1 bus1=1818457.4 R=15 X=0 basefreq=60

New transformer.690505 phases=3 xhl=3.7 %r=1.52 windings=2 %loadloss=1.5222222222222221 %noloadloss=0.37777777777777777
~ wdg=1 bus=179669240.1.2.3 kv=13.8 kva=45 tap=1 conn=delta
~ wdg=2 bus=5606297.1.2.3.4 kv=0.22 kva=45 tap=1 conn=wye
New Reactor.TF690505 phases=1 bus1=5606297.4 R=15 X=0 basefreq=60

New transformer.1061465 phases=3 xhl=3.77 %r=1.34 windings=2 %loadloss=1.34 %noloadloss=0.34
~ wdg=1 bus=179667248.1.2.3 kv=13.8 kva=75 tap=1 conn=delta
~ wdg=2 bus=129594077.1.2.3.4 kv=0.22 kva=75 tap=1 conn=wye
New Reactor.TF1061465 phases=1 bus1=129594077.4 R=15 X=0 basefreq=60

New transformer.398738 phases=3 xhl=3.7 %r=1.52 windings=2 %loadloss=1.5222222222222221 %noloadloss=0.37777777777777777
~ wdg=1 bus=127616955.1.2.3 kv=13.8 kva=45 tap=1 conn=delta
~ wdg=2 bus=1819997.1.2.3.4 kv=0.22 kva=45 tap=1 conn=wye
New Reactor.TF398738 phases=1 bus1=1819997.4 R=15 X=0 basefreq=60

New transformer.398675 phases=3 xhl=3.7 %r=1.52 windings=2 %loadloss=1.5222222222222221 %noloadloss=0.37777777777777777
~ wdg=1 bus=126433423.1.2.3 kv=13.8 kva=45 tap=1 conn=delta
~ wdg=2 bus=1819206.1.2.3.4 kv=0.22 kva=45 tap=1 conn=wye
New Reactor.TF398675 phases=1 bus1=1819206.4 R=15 X=0 basefreq=60

New transformer.398808 phases=3 xhl=3.77 %r=1.34 windings=2 %loadloss=1.34 %noloadloss=0.34
~ wdg=1 bus=150638993.1.2.3 kv=13.8 kva=75 tap=1 conn=delta
~ wdg=2 bus=1820774.1.2.3.4 kv=0.22 kva=75 tap=1 conn=wye
New Reactor.TF398808 phases=1 bus1=1820774.4 R=15 X=0 basefreq=60

New transformer.398731 phases=3 xhl=3.7 %r=1.52 windings=2 %loadloss=1.5222222222222221 %noloadloss=0.37777777777777777
~ wdg=1 bus=126433472.1.2.3 kv=13.8 kva=45 tap=1 conn=delta
~ wdg=2 bus=1819843.1.2.3.4 kv=0.22 kva=45 tap=1 conn=wye
New Reactor.TF398731 phases=1 bus1=1819843.4 R=15 X=0 basefreq=60

New transformer.398794 phases=3 xhl=3.77 %r=1.34 windings=2 %loadloss=1.34 %noloadloss=0.34
~ wdg=1 bus=150638992.1.2.3 kv=13.8 kva=75 tap=1 conn=delta
~ wdg=2 bus=1820564.1.2.3.4 kv=0.22 kva=75 tap=1 conn=wye
New Reactor.TF398794 phases=1 bus1=1820564.4 R=15 X=0 basefreq=60

New transformer.398836 phases=3 xhl=3.7 %r=1.52 windings=2 %loadloss=1.5222222222222221 %noloadloss=0.37777777777777777
~ wdg=1 bus=126438547.1.2.3 kv=13.8 kva=45 tap=1 conn=delta
~ wdg=2 bus=1821194.1.2.3.4 kv=0.22 kva=45 tap=1 conn=wye
New Reactor.TF398836 phases=1 bus1=1821194.4 R=15 X=0 basefreq=60

New transformer.398577 phases=3 xhl=3.64 %r=1.67 windings=2 %loadloss=1.6666666666666667 %noloadloss=0.43333333333333335
~ wdg=1 bus=150638995.1.2.3 kv=13.8 kva=30 tap=1 conn=delta
~ wdg=2 bus=1818128.1.2.3.4 kv=0.22 kva=30 tap=1 conn=wye
New Reactor.TF398577 phases=1 bus1=1818128.4 R=15 X=0 basefreq=60

New transformer.398710 phases=3 xhl=3.64 %r=1.67 windings=2 %loadloss=1.6666666666666667 %noloadloss=0.43333333333333335
~ wdg=1 bus=167122100.1.2.3 kv=13.8 kva=30 tap=1 conn=delta
~ wdg=2 bus=1819577.1.2.3.4 kv=0.22 kva=30 tap=1 conn=wye
New Reactor.TF398710 phases=1 bus1=1819577.4 R=15 X=0 basefreq=60

New transformer.398633 phases=3 xhl=3.7 %r=1.52 windings=2 %loadloss=1.5222222222222221 %noloadloss=0.37777777777777777
~ wdg=1 bus=150638996.1.2.3 kv=13.8 kva=45 tap=1 conn=delta
~ wdg=2 bus=1818765.1.2.3.4 kv=0.22 kva=45 tap=1 conn=wye
New Reactor.TF398633 phases=1 bus1=1818765.4 R=15 X=0 basefreq=60

New transformer.399095 phases=3 xhl=3.7 %r=1.52 windings=2 %loadloss=1.5222222222222221 %noloadloss=0.37777777777777777
~ wdg=1 bus=182623272.1.2.3 kv=13.8 kva=45 tap=1 conn=delta
~ wdg=2 bus=1824414.1.2.3.4 kv=0.22 kva=45 tap=1 conn=wye
New Reactor.TF399095 phases=1 bus1=1824414.4 R=15 X=0 basefreq=60

New transformer.399039 phases=3 xhl=3.7 %r=1.52 windings=2 %loadloss=1.5222222222222221 %noloadloss=0.37777777777777777
~ wdg=1 bus=126433598.1.2.3 kv=13.8 kva=45 tap=1 conn=delta
~ wdg=2 bus=1823672.1.2.3.4 kv=0.22 kva=45 tap=1 conn=wye
New Reactor.TF399039 phases=1 bus1=1823672.4 R=15 X=0 basefreq=60

New transformer.399151 phases=3 xhl=3.7 %r=1.52 windings=2 %loadloss=1.5222222222222221 %noloadloss=0.37777777777777777
~ wdg=1 bus=126433507.1.2.3 kv=13.8 kva=45 tap=1 conn=delta
~ wdg=2 bus=1825002.1.2.3.4 kv=0.22 kva=45 tap=1 conn=wye
New Reactor.TF399151 phases=1 bus1=1825002.4 R=15 X=0 basefreq=60

New transformer.399172 phases=3 xhl=3.7 %r=1.52 windings=2 %loadloss=1.5222222222222221 %noloadloss=0.37777777777777777
~ wdg=1 bus=182623269.1.2.3 kv=13.8 kva=45 tap=1 conn=delta
~ wdg=2 bus=1825233.1.2.3.4 kv=0.22 kva=45 tap=1 conn=wye
New Reactor.TF399172 phases=1 bus1=1825233.4 R=15 X=0 basefreq=60

New transformer.398829 phases=3 xhl=3.7 %r=1.52 windings=2 %loadloss=1.5222222222222221 %noloadloss=0.37777777777777777
~ wdg=1 bus=126433619.1.2.3 kv=13.8 kva=45 tap=1 conn=delta
~ wdg=2 bus=1821103.1.2.3.4 kv=0.22 kva=45 tap=1 conn=wye
New Reactor.TF398829 phases=1 bus1=1821103.4 R=15 X=0 basefreq=60

New transformer.399242 phases=3 xhl=3.7 %r=1.52 windings=2 %loadloss=1.5222222222222221 %noloadloss=0.37777777777777777
~ wdg=1 bus=126433528.1.2.3 kv=13.8 kva=45 tap=1 conn=delta
~ wdg=2 bus=1826150.1.2.3.4 kv=0.22 kva=45 tap=1 conn=wye
New Reactor.TF399242 phases=1 bus1=1826150.4 R=15 X=0 basefreq=60

New transformer.398962 phases=3 xhl=3.64 %r=1.67 windings=2 %loadloss=1.6666666666666667 %noloadloss=0.43333333333333335
~ wdg=1 bus=126435208.1.2.3 kv=13.8 kva=30 tap=1 conn=delta
~ wdg=2 bus=1822720.1.2.3.4 kv=0.22 kva=30 tap=1 conn=wye
New Reactor.TF398962 phases=1 bus1=1822720.4 R=15 X=0 basefreq=60

New transformer.399606 phases=3 xhl=3.7 %r=1.52 windings=2 %loadloss=1.5222222222222221 %noloadloss=0.37777777777777777
~ wdg=1 bus=126435411.1.2.3 kv=13.8 kva=45 tap=1 conn=delta
~ wdg=2 bus=1831246.1.2.3.4 kv=0.22 kva=45 tap=1 conn=wye
New Reactor.TF399606 phases=1 bus1=1831246.4 R=15 X=0 basefreq=60

New transformer.399277 phases=3 xhl=3.64 %r=1.67 windings=2 %loadloss=1.6666666666666667 %noloadloss=0.43333333333333335
~ wdg=1 bus=126435740.1.2.3 kv=13.8 kva=30 tap=1 conn=delta
~ wdg=2 bus=1826668.1.2.3.4 kv=0.22 kva=30 tap=1 conn=wye
New Reactor.TF399277 phases=1 bus1=1826668.4 R=15 X=0 basefreq=60

New transformer.399291 phases=3 xhl=3.7 %r=1.52 windings=2 %loadloss=1.5222222222222221 %noloadloss=0.37777777777777777
~ wdg=1 bus=126433549.1.2.3 kv=13.8 kva=45 tap=1 conn=delta
~ wdg=2 bus=1826738.1.2.3.4 kv=0.22 kva=45 tap=1 conn=wye
New Reactor.TF399291 phases=1 bus1=1826738.4 R=15 X=0 basefreq=60

New transformer.399571 phases=3 xhl=3.7 %r=1.52 windings=2 %loadloss=1.5222222222222221 %noloadloss=0.37777777777777777
~ wdg=1 bus=178110150.1.2.3 kv=13.8 kva=45 tap=1 conn=delta
~ wdg=2 bus=1830945.1.2.3.4 kv=0.22 kva=45 tap=1 conn=wye
New Reactor.TF399571 phases=1 bus1=1830945.4 R=15 X=0 basefreq=60

New transformer.398969 phases=3 xhl=3.77 %r=1.34 windings=2 %loadloss=1.34 %noloadloss=0.34
~ wdg=1 bus=126438561.1.2.3 kv=13.8 kva=75 tap=1 conn=delta
~ wdg=2 bus=1822790.1.2.3.4 kv=0.22 kva=75 tap=1 conn=wye
New Reactor.TF398969 phases=1 bus1=1822790.4 R=15 X=0 basefreq=60

New transformer.398752 phases=3 xhl=3.7 %r=1.52 windings=2 %loadloss=1.5222222222222221 %noloadloss=0.37777777777777777
~ wdg=1 bus=126433493.1.2.3 kv=13.8 kva=45 tap=1 conn=delta
~ wdg=2 bus=1820193.1.2.3.4 kv=0.22 kva=45 tap=1 conn=wye
New Reactor.TF398752 phases=1 bus1=1820193.4 R=15 X=0 basefreq=60

New transformer.398871 phases=3 xhl=3.7 %r=1.52 windings=2 %loadloss=1.5222222222222221 %noloadloss=0.37777777777777777
~ wdg=1 bus=126433612.1.2.3 kv=13.8 kva=45 tap=1 conn=delta
~ wdg=2 bus=1821698.1.2.3.4 kv=0.22 kva=45 tap=1 conn=wye
New Reactor.TF398871 phases=1 bus1=1821698.4 R=15 X=0 basefreq=60

New transformer.399165 phases=3 xhl=3.7 %r=1.52 windings=2 %loadloss=1.5222222222222221 %noloadloss=0.37777777777777777
~ wdg=1 bus=126433822.1.2.3 kv=13.8 kva=45 tap=1 conn=delta
~ wdg=2 bus=1825128.1.2.3.4 kv=0.22 kva=45 tap=1 conn=wye
New Reactor.TF399165 phases=1 bus1=1825128.4 R=15 X=0 basefreq=60

New transformer.398997 phases=3 xhl=3.77 %r=1.34 windings=2 %loadloss=1.34 %noloadloss=0.34
~ wdg=1 bus=126435222.1.2.3 kv=13.8 kva=75 tap=1 conn=delta
~ wdg=2 bus=1823084.1.2.3.4 kv=0.22 kva=75 tap=1 conn=wye
New Reactor.TF398997 phases=1 bus1=1823084.4 R=15 X=0 basefreq=60

New transformer.399235 phases=3 xhl=3.77 %r=1.34 windings=2 %loadloss=1.34 %noloadloss=0.34
~ wdg=1 bus=126433332.1.2.3 kv=13.8 kva=75 tap=1 conn=delta
~ wdg=2 bus=1826031.1.2.3.4 kv=0.22 kva=75 tap=1 conn=wye
New Reactor.TF399235 phases=1 bus1=1826031.4 R=15 X=0 basefreq=60

New transformer.399081 phases=3 xhl=3.77 %r=1.34 windings=2 %loadloss=1.34 %noloadloss=0.34
~ wdg=1 bus=126438568.1.2.3 kv=13.8 kva=75 tap=1 conn=delta
~ wdg=2 bus=1824260.1.2.3.4 kv=0.22 kva=75 tap=1 conn=wye
New Reactor.TF399081 phases=1 bus1=1824260.4 R=15 X=0 basefreq=60

New transformer.399067 phases=3 xhl=3.77 %r=1.34 windings=2 %loadloss=1.34 %noloadloss=0.34
~ wdg=1 bus=126433486.1.2.3 kv=13.8 kva=75 tap=1 conn=delta
~ wdg=2 bus=1824036.1.2.3.4 kv=0.22 kva=75 tap=1 conn=wye
New Reactor.TF399067 phases=1 bus1=1824036.4 R=15 X=0 basefreq=60

New transformer.399193 phases=3 xhl=3.77 %r=1.34 windings=2 %loadloss=1.34 %noloadloss=0.34
~ wdg=1 bus=126435229.1.2.3 kv=13.8 kva=75 tap=1 conn=delta
~ wdg=2 bus=1825513.1.2.3.4 kv=0.22 kva=75 tap=1 conn=wye
New Reactor.TF399193 phases=1 bus1=1825513.4 R=15 X=0 basefreq=60

New transformer.399501 phases=3 xhl=3.77 %r=1.34 windings=2 %loadloss=1.34 %noloadloss=0.34
~ wdg=1 bus=178110138.1.2.3 kv=13.8 kva=75 tap=1 conn=delta
~ wdg=2 bus=1829853.1.2.3.4 kv=0.22 kva=75 tap=1 conn=wye
New Reactor.TF399501 phases=1 bus1=1829853.4 R=15 X=0 basefreq=60

New transformer.399655 phases=3 xhl=3.7 %r=1.52 windings=2 %loadloss=1.5222222222222221 %noloadloss=0.37777777777777777
~ wdg=1 bus=159740022.1.2.3 kv=13.8 kva=45 tap=1 conn=delta
~ wdg=2 bus=1831813.1.2.3.4 kv=0.22 kva=45 tap=1 conn=wye
New Reactor.TF399655 phases=1 bus1=1831813.4 R=15 X=0 basefreq=60

New transformer.399305 phases=3 xhl=3.7 %r=1.52 windings=2 %loadloss=1.5222222222222221 %noloadloss=0.37777777777777777
~ wdg=1 bus=182623261.1.2.3 kv=13.8 kva=45 tap=1 conn=delta
~ wdg=2 bus=1826955.1.2.3.4 kv=0.22 kva=45 tap=1 conn=wye
New Reactor.TF399305 phases=1 bus1=1826955.4 R=15 X=0 basefreq=60

New transformer.444350 phases=3 xhl=3.7 %r=1.52 windings=2 %loadloss=1.5222222222222221 %noloadloss=0.37777777777777777
~ wdg=1 bus=126435418.1.2.3 kv=13.8 kva=45 tap=1 conn=delta
~ wdg=2 bus=2361657.1.2.3.4 kv=0.22 kva=45 tap=1 conn=wye
New Reactor.TF444350 phases=1 bus1=2361657.4 R=15 X=0 basefreq=60

New transformer.399347 phases=3 xhl=3.64 %r=1.67 windings=2 %loadloss=1.6666666666666667 %noloadloss=0.43333333333333335
~ wdg=1 bus=126435733.1.2.3 kv=13.8 kva=30 tap=1 conn=delta
~ wdg=2 bus=1827585.1.2.3.4 kv=0.22 kva=30 tap=1 conn=wye
New Reactor.TF399347 phases=1 bus1=1827585.4 R=15 X=0 basefreq=60

New transformer.398976 phases=3 xhl=3.7 %r=1.52 windings=2 %loadloss=1.5222222222222221 %noloadloss=0.37777777777777777
~ wdg=1 bus=126433605.1.2.3 kv=13.8 kva=45 tap=1 conn=delta
~ wdg=2 bus=1822888.1.2.3.4 kv=0.22 kva=45 tap=1 conn=wye
New Reactor.TF398976 phases=1 bus1=1822888.4 R=15 X=0 basefreq=60

New transformer.398885 phases=3 xhl=3.7 %r=1.52 windings=2 %loadloss=1.5222222222222221 %noloadloss=0.37777777777777777
~ wdg=1 bus=126433465.1.2.3 kv=13.8 kva=45 tap=1 conn=delta
~ wdg=2 bus=1821915.1.2.3.4 kv=0.22 kva=45 tap=1 conn=wye
New Reactor.TF398885 phases=1 bus1=1821915.4 R=15 X=0 basefreq=60

New transformer.399536 phases=3 xhl=3.77 %r=1.34 windings=2 %loadloss=1.34 %noloadloss=0.34
~ wdg=1 bus=178110141.1.2.3 kv=13.8 kva=75 tap=1 conn=delta
~ wdg=2 bus=1830350.1.2.3.4 kv=0.22 kva=75 tap=1 conn=wye
New Reactor.TF399536 phases=1 bus1=1830350.4 R=15 X=0 basefreq=60

New transformer.398913 phases=3 xhl=3.64 %r=1.67 windings=2 %loadloss=1.6666666666666667 %noloadloss=0.43333333333333335
~ wdg=1 bus=126433815.1.2.3 kv=13.8 kva=30 tap=1 conn=delta
~ wdg=2 bus=1822174.1.2.3.4 kv=0.22 kva=30 tap=1 conn=wye
New Reactor.TF398913 phases=1 bus1=1822174.4 R=15 X=0 basefreq=60

New transformer.399634 phases=3 xhl=3.84 %r=1.13 windings=2 %loadloss=1.1266666666666667 %noloadloss=0.28
~ wdg=1 bus=126435453.1.2.3 kv=13.8 kva=150 tap=1 conn=delta
~ wdg=2 bus=1831652.1.2.3.4 kv=0.22 kva=150 tap=1 conn=wye
New Reactor.TF399634 phases=1 bus1=1831652.4 R=15 X=0 basefreq=60

New transformer.399515 phases=3 xhl=3.64 %r=1.67 windings=2 %loadloss=1.6666666666666667 %noloadloss=0.43333333333333335
~ wdg=1 bus=182623268.1.2.3 kv=13.8 kva=30 tap=1 conn=delta
~ wdg=2 bus=1830042.1.2.3.4 kv=0.22 kva=30 tap=1 conn=wye
New Reactor.TF399515 phases=1 bus1=1830042.4 R=15 X=0 basefreq=60

New transformer.399557 phases=3 xhl=3.7 %r=1.52 windings=2 %loadloss=1.5222222222222221 %noloadloss=0.37777777777777777
~ wdg=1 bus=182623264.1.2.3 kv=13.8 kva=45 tap=1 conn=delta
~ wdg=2 bus=1830707.1.2.3.4 kv=0.22 kva=45 tap=1 conn=wye
New Reactor.TF399557 phases=1 bus1=1830707.4 R=15 X=0 basefreq=60
