New load.bt1200579-1 phases=1 bus=1002482960.2.4 model=2 kv=0.127 kw=0.06562842465753424 pf=0.92 conn=wye status=variable vmaxpu=1.5 vminpu=0.92 daily=RES1_7
New load.bt1200579-2 phases=1 bus=1002482960.2.4 model=3 kv=0.127 kw=0.06562842465753424 pf=0.92 conn=wye status=variable vmaxpu=1.5 vminpu=0.92 daily=RES1_7
New load.bt1201444-1 phases=1 bus=1003352052.2.3.4 model=2 kv=0.22 kw=0.08311130136986301 pf=0.92 conn=delta status=variable vmaxpu=1.5 vminpu=0.92 daily=COM1_11
New load.bt1201444-2 phases=1 bus=1003352052.2.3.4 model=3 kv=0.22 kw=0.08311130136986301 pf=0.92 conn=delta status=variable vmaxpu=1.5 vminpu=0.92 daily=COM1_11
New load.bt1201558-1 phases=1 bus=1002469961.1.4 model=2 kv=0.127 kw=0.0987711187214612 pf=0.92 conn=wye status=variable vmaxpu=1.5 vminpu=0.92 daily=RES1_7
New load.bt1201558-2 phases=1 bus=1002469961.1.4 model=3 kv=0.127 kw=0.0987711187214612 pf=0.92 conn=wye status=variable vmaxpu=1.5 vminpu=0.92 daily=RES1_7
New load.bt1202320-1 phases=1 bus=1002469821.1.2.4 model=2 kv=0.22 kw=0.09753139269406393 pf=0.92 conn=delta status=variable vmaxpu=1.5 vminpu=0.92 daily=RES1_7
New load.bt1202320-2 phases=1 bus=1002469821.1.2.4 model=3 kv=0.22 kw=0.09753139269406393 pf=0.92 conn=delta status=variable vmaxpu=1.5 vminpu=0.92 daily=RES1_7
New load.bt1202956-1 phases=1 bus=1002477626.3.1.4 model=2 kv=0.22 kw=0.04415639269406393 pf=0.92 conn=delta status=variable vmaxpu=1.5 vminpu=0.92 daily=RES1_7
New load.bt1202956-2 phases=1 bus=1002477626.3.1.4 model=3 kv=0.22 kw=0.04415639269406393 pf=0.92 conn=delta status=variable vmaxpu=1.5 vminpu=0.92 daily=RES1_7
New load.bt1203276-1 phases=3 bus=1002483065.1.2.3.4 model=2 kv=0.22 kw=0.08894463470319634 pf=0.92 conn=delta status=variable vmaxpu=1.5 vminpu=0.92 daily=RES1_7
New load.bt1203276-2 phases=3 bus=1002483065.1.2.3.4 model=3 kv=0.22 kw=0.08894463470319634 pf=0.92 conn=delta status=variable vmaxpu=1.5 vminpu=0.92 daily=RES1_7
New load.bt1203503-1 phases=1 bus=1002461547.3.1.4 model=2 kv=0.22 kw=0.10323972602739724 pf=0.92 conn=delta status=variable vmaxpu=1.5 vminpu=0.92 daily=RES1_7
New load.bt1203503-2 phases=1 bus=1002461547.3.1.4 model=3 kv=0.22 kw=0.10323972602739724 pf=0.92 conn=delta status=variable vmaxpu=1.5 vminpu=0.92 daily=RES1_7
New load.bt1203821-1 phases=1 bus=1002453602.2.4 model=2 kv=0.127 kw=0.05915867579908676 pf=0.92 conn=wye status=variable vmaxpu=1.5 vminpu=0.92 daily=RES1_7
New load.bt1203821-2 phases=1 bus=1002453602.2.4 model=3 kv=0.127 kw=0.05915867579908676 pf=0.92 conn=wye status=variable vmaxpu=1.5 vminpu=0.92 daily=RES1_7
New load.bt1204204-1 phases=1 bus=1002470269.1.4 model=2 kv=0.127 kw=0.09542123287671231 pf=0.92 conn=wye status=variable vmaxpu=1.5 vminpu=0.92 daily=RES1_7
New load.bt1204204-2 phases=1 bus=1002470269.1.4 model=3 kv=0.127 kw=0.09542123287671231 pf=0.92 conn=wye status=variable vmaxpu=1.5 vminpu=0.92 daily=RES1_7
New load.bt1204296-1 phases=1 bus=1002464494.1.2.4 model=2 kv=0.22 kw=0.10121917808219179 pf=0.92 conn=delta status=variable vmaxpu=1.5 vminpu=0.92 daily=RES1_7
New load.bt1204296-2 phases=1 bus=1002464494.1.2.4 model=3 kv=0.22 kw=0.10121917808219179 pf=0.92 conn=delta status=variable vmaxpu=1.5 vminpu=0.92 daily=RES1_7
New load.bt1204545-1 phases=1 bus=1002462072.2.4 model=2 kv=0.127 kw=0.09287899543378995 pf=0.92 conn=wye status=variable vmaxpu=1.5 vminpu=0.92 daily=RES1_7
New load.bt1204545-2 phases=1 bus=1002462072.2.4 model=3 kv=0.127 kw=0.09287899543378995 pf=0.92 conn=wye status=variable vmaxpu=1.5 vminpu=0.92 daily=RES1_7
New load.bt1205264-1 phases=1 bus=1002486096.2.3.4 model=2 kv=0.22 kw=0.08565011415525114 pf=0.92 conn=delta status=variable vmaxpu=1.5 vminpu=0.92 daily=RES1_7
New load.bt1205264-2 phases=1 bus=1002486096.2.3.4 model=3 kv=0.22 kw=0.08565011415525114 pf=0.92 conn=delta status=variable vmaxpu=1.5 vminpu=0.92 daily=RES1_7
New load.bt1205291-1 phases=1 bus=1002460280.2.3.4 model=2 kv=0.22 kw=0.09822659817351598 pf=0.92 conn=delta status=variable vmaxpu=1.5 vminpu=0.92 daily=RES1_7
New load.bt1205291-2 phases=1 bus=1002460280.2.3.4 model=3 kv=0.22 kw=0.09822659817351598 pf=0.92 conn=delta status=variable vmaxpu=1.5 vminpu=0.92 daily=RES1_7
New load.bt1205772-1 phases=1 bus=1002460889.1.2.4 model=2 kv=0.22 kw=0.08806278538812785 pf=0.92 conn=delta status=variable vmaxpu=1.5 vminpu=0.92 daily=COM1_11
New load.bt1205772-2 phases=1 bus=1002460889.1.2.4 model=3 kv=0.22 kw=0.08806278538812785 pf=0.92 conn=delta status=variable vmaxpu=1.5 vminpu=0.92 daily=COM1_11
New load.bt1205929-1 phases=1 bus=1002453721.3.1.4 model=2 kv=0.22 kw=0.08673687214611875 pf=0.92 conn=delta status=variable vmaxpu=1.5 vminpu=0.92 daily=RES1_7
New load.bt1205929-2 phases=1 bus=1002453721.3.1.4 model=3 kv=0.22 kw=0.08673687214611875 pf=0.92 conn=delta status=variable vmaxpu=1.5 vminpu=0.92 daily=RES1_7
New load.bt1205947-1 phases=1 bus=1002470521.3.1.4 model=2 kv=0.22 kw=0.08933276255707763 pf=0.92 conn=delta status=variable vmaxpu=1.5 vminpu=0.92 daily=RES1_7
New load.bt1205947-2 phases=1 bus=1002470521.3.1.4 model=3 kv=0.22 kw=0.08933276255707763 pf=0.92 conn=delta status=variable vmaxpu=1.5 vminpu=0.92 daily=RES1_7
New load.bt1206587-1 phases=1 bus=1003340033.2.3.4 model=2 kv=0.22 kw=0.10472317351598172 pf=0.92 conn=delta status=variable vmaxpu=1.5 vminpu=0.92 daily=RES1_7
New load.bt1206587-2 phases=1 bus=1003340033.2.3.4 model=3 kv=0.22 kw=0.10472317351598172 pf=0.92 conn=delta status=variable vmaxpu=1.5 vminpu=0.92 daily=RES1_7
New load.bt1206739-1 phases=1 bus=1002485795.2.3.4 model=2 kv=0.22 kw=0.09326769406392693 pf=0.92 conn=delta status=variable vmaxpu=1.5 vminpu=0.92 daily=RES1_7
New load.bt1206739-2 phases=1 bus=1002485795.2.3.4 model=3 kv=0.22 kw=0.09326769406392693 pf=0.92 conn=delta status=variable vmaxpu=1.5 vminpu=0.92 daily=RES1_7
New load.bt1207886-1 phases=1 bus=1002477479.2.4 model=2 kv=0.127 kw=0.0777134703196347 pf=0.92 conn=wye status=variable vmaxpu=1.5 vminpu=0.92 daily=RES1_7
New load.bt1207886-2 phases=1 bus=1002477479.2.4 model=3 kv=0.127 kw=0.0777134703196347 pf=0.92 conn=wye status=variable vmaxpu=1.5 vminpu=0.92 daily=RES1_7
New load.bt1209483-1 phases=1 bus=1002453623.1.4 model=2 kv=0.127 kw=0.09488470319634705 pf=0.92 conn=wye status=variable vmaxpu=1.5 vminpu=0.92 daily=RES1_7
New load.bt1209483-2 phases=1 bus=1002453623.1.4 model=3 kv=0.127 kw=0.09488470319634705 pf=0.92 conn=wye status=variable vmaxpu=1.5 vminpu=0.92 daily=RES1_7
New load.bt1209525-1 phases=1 bus=1002462926.2.4 model=2 kv=0.127 kw=0.09332762557077626 pf=0.92 conn=wye status=variable vmaxpu=1.5 vminpu=0.92 daily=RES1_7
New load.bt1209525-2 phases=1 bus=1002462926.2.4 model=3 kv=0.127 kw=0.09332762557077626 pf=0.92 conn=wye status=variable vmaxpu=1.5 vminpu=0.92 daily=RES1_7
New load.bt1209676-1 phases=1 bus=1002460490.2.3.4 model=2 kv=0.22 kw=0.09986929223744292 pf=0.92 conn=delta status=variable vmaxpu=1.5 vminpu=0.92 daily=RES1_7
New load.bt1209676-2 phases=1 bus=1002460490.2.3.4 model=3 kv=0.22 kw=0.09986929223744292 pf=0.92 conn=delta status=variable vmaxpu=1.5 vminpu=0.92 daily=RES1_7
New load.bt1209783-1 phases=1 bus=1002463920.2.3.4 model=2 kv=0.22 kw=0.15770376712328765 pf=0.92 conn=delta status=variable vmaxpu=1.5 vminpu=0.92 daily=RES1_7
New load.bt1209783-2 phases=1 bus=1002463920.2.3.4 model=3 kv=0.22 kw=0.15770376712328765 pf=0.92 conn=delta status=variable vmaxpu=1.5 vminpu=0.92 daily=RES1_7
New load.bt1210135-1 phases=1 bus=1002460567.2.3.4 model=2 kv=0.22 kw=0.0906775114155251 pf=0.92 conn=delta status=variable vmaxpu=1.5 vminpu=0.92 daily=RES1_7
New load.bt1210135-2 phases=1 bus=1002460567.2.3.4 model=3 kv=0.22 kw=0.0906775114155251 pf=0.92 conn=delta status=variable vmaxpu=1.5 vminpu=0.92 daily=RES1_7
New load.bt1210891-1 phases=1 bus=1002482897.1.2.4 model=2 kv=0.22 kw=0.08708732876712327 pf=0.92 conn=delta status=variable vmaxpu=1.5 vminpu=0.92 daily=RES1_7
New load.bt1210891-2 phases=1 bus=1002482897.1.2.4 model=3 kv=0.22 kw=0.08708732876712327 pf=0.92 conn=delta status=variable vmaxpu=1.5 vminpu=0.92 daily=RES1_7
New load.bt1212704-1 phases=1 bus=1002456367.3.4 model=2 kv=0.127 kw=0.09567522831050228 pf=0.92 conn=wye status=variable vmaxpu=1.5 vminpu=0.92 daily=RES1_7
New load.bt1212704-2 phases=1 bus=1002456367.3.4 model=3 kv=0.127 kw=0.09567522831050228 pf=0.92 conn=wye status=variable vmaxpu=1.5 vminpu=0.92 daily=RES1_7
New load.bt1213902-1 phases=1 bus=1002456213.3.4 model=2 kv=0.127 kw=0.09376484018264838 pf=0.92 conn=wye status=variable vmaxpu=1.5 vminpu=0.92 daily=RES1_7
New load.bt1213902-2 phases=1 bus=1002456213.3.4 model=3 kv=0.127 kw=0.09376484018264838 pf=0.92 conn=wye status=variable vmaxpu=1.5 vminpu=0.92 daily=RES1_7
New load.bt1214322-1 phases=1 bus=1003293455.1.2.4 model=2 kv=0.22 kw=0.07852682648401826 pf=0.92 conn=delta status=variable vmaxpu=1.5 vminpu=0.92 daily=RES1_7
New load.bt1214322-2 phases=1 bus=1003293455.1.2.4 model=3 kv=0.22 kw=0.07852682648401826 pf=0.92 conn=delta status=variable vmaxpu=1.5 vminpu=0.92 daily=RES1_7
New load.bt1215553-1 phases=3 bus=1002469030.1.2.3.4 model=2 kv=0.22 kw=0.09069520547945206 pf=0.92 conn=delta status=variable vmaxpu=1.5 vminpu=0.92 daily=RES1_7
New load.bt1215553-2 phases=3 bus=1002469030.1.2.3.4 model=3 kv=0.22 kw=0.09069520547945206 pf=0.92 conn=delta status=variable vmaxpu=1.5 vminpu=0.92 daily=RES1_7
New load.bt1216975-1 phases=1 bus=1002462779.1.2.4 model=2 kv=0.22 kw=0.09081050228310504 pf=0.92 conn=delta status=variable vmaxpu=1.5 vminpu=0.92 daily=RES1_7
New load.bt1216975-2 phases=1 bus=1002462779.1.2.4 model=3 kv=0.22 kw=0.09081050228310504 pf=0.92 conn=delta status=variable vmaxpu=1.5 vminpu=0.92 daily=RES1_7
New load.bt1217334-1 phases=1 bus=1002462660.1.2.4 model=2 kv=0.22 kw=0.076787100456621 pf=0.92 conn=delta status=variable vmaxpu=1.5 vminpu=0.92 daily=RES1_7
New load.bt1217334-2 phases=1 bus=1002462660.1.2.4 model=3 kv=0.22 kw=0.076787100456621 pf=0.92 conn=delta status=variable vmaxpu=1.5 vminpu=0.92 daily=RES1_7
New load.bt1218516-1 phases=1 bus=1002476401.1.2.4 model=2 kv=0.22 kw=0.08977796803652967 pf=0.92 conn=delta status=variable vmaxpu=1.5 vminpu=0.92 daily=RES1_7
New load.bt1218516-2 phases=1 bus=1002476401.1.2.4 model=3 kv=0.22 kw=0.08977796803652967 pf=0.92 conn=delta status=variable vmaxpu=1.5 vminpu=0.92 daily=RES1_7
New load.bt1218803-1 phases=1 bus=1002468904.2.3.4 model=2 kv=0.22 kw=0.10311700913242008 pf=0.92 conn=delta status=variable vmaxpu=1.5 vminpu=0.92 daily=RES1_7
New load.bt1218803-2 phases=1 bus=1002468904.2.3.4 model=3 kv=0.22 kw=0.10311700913242008 pf=0.92 conn=delta status=variable vmaxpu=1.5 vminpu=0.92 daily=RES1_7
New load.bt1219035-1 phases=1 bus=1002477486.2.4 model=2 kv=0.127 kw=0.08414041095890412 pf=0.92 conn=wye status=variable vmaxpu=1.5 vminpu=0.92 daily=RES1_7
New load.bt1219035-2 phases=1 bus=1002477486.2.4 model=3 kv=0.127 kw=0.08414041095890412 pf=0.92 conn=wye status=variable vmaxpu=1.5 vminpu=0.92 daily=RES1_7
New load.bt1219075-1 phases=1 bus=1002456143.3.4 model=2 kv=0.127 kw=0.08309589041095891 pf=0.92 conn=wye status=variable vmaxpu=1.5 vminpu=0.92 daily=RES1_7
New load.bt1219075-2 phases=1 bus=1002456143.3.4 model=3 kv=0.127 kw=0.08309589041095891 pf=0.92 conn=wye status=variable vmaxpu=1.5 vminpu=0.92 daily=RES1_7
New load.bt1220852-1 phases=1 bus=1002462093.1.2.4 model=2 kv=0.22 kw=0.0902654109589041 pf=0.92 conn=delta status=variable vmaxpu=1.5 vminpu=0.92 daily=RES1_7
New load.bt1220852-2 phases=1 bus=1002462093.1.2.4 model=3 kv=0.22 kw=0.0902654109589041 pf=0.92 conn=delta status=variable vmaxpu=1.5 vminpu=0.92 daily=RES1_7
New load.bt1220866-1 phases=1 bus=1002462912.2.3.4 model=2 kv=0.22 kw=0.10125627853881279 pf=0.92 conn=delta status=variable vmaxpu=1.5 vminpu=0.92 daily=RES1_7
New load.bt1220866-2 phases=1 bus=1002462912.2.3.4 model=3 kv=0.22 kw=0.10125627853881279 pf=0.92 conn=delta status=variable vmaxpu=1.5 vminpu=0.92 daily=RES1_7
New load.bt1221104-1 phases=1 bus=1002485844.2.3.4 model=2 kv=0.22 kw=0.0988156392694064 pf=0.92 conn=delta status=variable vmaxpu=1.5 vminpu=0.92 daily=RES1_7
New load.bt1221104-2 phases=1 bus=1002485844.2.3.4 model=3 kv=0.22 kw=0.0988156392694064 pf=0.92 conn=delta status=variable vmaxpu=1.5 vminpu=0.92 daily=RES1_7
New load.bt1221789-1 phases=1 bus=1003293371.2.3.4 model=2 kv=0.22 kw=0.2278961187214612 pf=0.92 conn=delta status=variable vmaxpu=1.5 vminpu=0.92 daily=RES1_7
New load.bt1221789-2 phases=1 bus=1003293371.2.3.4 model=3 kv=0.22 kw=0.2278961187214612 pf=0.92 conn=delta status=variable vmaxpu=1.5 vminpu=0.92 daily=RES1_7
New load.bt1221814-1 phases=1 bus=1002456353.2.3.4 model=2 kv=0.22 kw=0.08362157534246577 pf=0.92 conn=delta status=variable vmaxpu=1.5 vminpu=0.92 daily=RES1_7
New load.bt1221814-2 phases=1 bus=1002456353.2.3.4 model=3 kv=0.22 kw=0.08362157534246577 pf=0.92 conn=delta status=variable vmaxpu=1.5 vminpu=0.92 daily=RES1_7
New load.bt1222377-1 phases=3 bus=1002462716.1.2.3.4 model=2 kv=0.22 kw=0.08270547945205478 pf=0.92 conn=delta status=variable vmaxpu=1.5 vminpu=0.92 daily=RES1_7
New load.bt1222377-2 phases=3 bus=1002462716.1.2.3.4 model=3 kv=0.22 kw=0.08270547945205478 pf=0.92 conn=delta status=variable vmaxpu=1.5 vminpu=0.92 daily=RES1_7
New load.bt1222407-1 phases=3 bus=1004157304.1.2.3.4 model=2 kv=0.22 kw=0.02165810502283105 pf=0.92 conn=delta status=variable vmaxpu=1.5 vminpu=0.92 daily=RES1_7
New load.bt1222407-2 phases=3 bus=1004157304.1.2.3.4 model=3 kv=0.22 kw=0.02165810502283105 pf=0.92 conn=delta status=variable vmaxpu=1.5 vminpu=0.92 daily=RES1_7
New load.bt1222588-1 phases=3 bus=1002462709.1.2.3.4 model=2 kv=0.22 kw=0.05083618721461187 pf=0.92 conn=delta status=variable vmaxpu=1.5 vminpu=0.92 daily=RES1_7
New load.bt1222588-2 phases=3 bus=1002462709.1.2.3.4 model=3 kv=0.22 kw=0.05083618721461187 pf=0.92 conn=delta status=variable vmaxpu=1.5 vminpu=0.92 daily=RES1_7
New load.bt1222957-1 phases=1 bus=1002460147.3.1.4 model=2 kv=0.22 kw=0.09518664383561644 pf=0.92 conn=delta status=variable vmaxpu=1.5 vminpu=0.92 daily=RES1_7
New load.bt1222957-2 phases=1 bus=1002460147.3.1.4 model=3 kv=0.22 kw=0.09518664383561644 pf=0.92 conn=delta status=variable vmaxpu=1.5 vminpu=0.92 daily=RES1_7
New load.bt1222995-1 phases=1 bus=1002449647.3.1.4 model=2 kv=0.22 kw=0.08132420091324202 pf=0.92 conn=delta status=variable vmaxpu=1.5 vminpu=0.92 daily=RES1_7
New load.bt1222995-2 phases=1 bus=1002449647.3.1.4 model=3 kv=0.22 kw=0.08132420091324202 pf=0.92 conn=delta status=variable vmaxpu=1.5 vminpu=0.92 daily=RES1_7
New load.bt1223423-1 phases=1 bus=1002483086.2.3.4 model=2 kv=0.22 kw=0.079712899543379 pf=0.92 conn=delta status=variable vmaxpu=1.5 vminpu=0.92 daily=RES1_7
New load.bt1223423-2 phases=1 bus=1002483086.2.3.4 model=3 kv=0.22 kw=0.079712899543379 pf=0.92 conn=delta status=variable vmaxpu=1.5 vminpu=0.92 daily=RES1_7
New load.bt1224201-1 phases=1 bus=1002460245.3.4 model=2 kv=0.127 kw=0.08012214611872147 pf=0.92 conn=wye status=variable vmaxpu=1.5 vminpu=0.92 daily=RES1_7
New load.bt1224201-2 phases=1 bus=1002460245.3.4 model=3 kv=0.127 kw=0.08012214611872147 pf=0.92 conn=wye status=variable vmaxpu=1.5 vminpu=0.92 daily=RES1_7
New load.bt1224365-1 phases=1 bus=1002459993.2.3.4 model=2 kv=0.22 kw=0.08657420091324201 pf=0.92 conn=delta status=variable vmaxpu=1.5 vminpu=0.92 daily=RES1_7
New load.bt1224365-2 phases=1 bus=1002459993.2.3.4 model=3 kv=0.22 kw=0.08657420091324201 pf=0.92 conn=delta status=variable vmaxpu=1.5 vminpu=0.92 daily=RES1_7
New load.bt1224494-1 phases=1 bus=1002451019.2.4 model=2 kv=0.127 kw=0.02815753424657534 pf=0.92 conn=wye status=variable vmaxpu=1.5 vminpu=0.92 daily=RES1_7
New load.bt1224494-2 phases=1 bus=1002451019.2.4 model=3 kv=0.127 kw=0.02815753424657534 pf=0.92 conn=wye status=variable vmaxpu=1.5 vminpu=0.92 daily=RES1_7
New load.bt1226024-1 phases=1 bus=1002451306.3.1.4 model=2 kv=0.22 kw=0.08660159817351597 pf=0.92 conn=delta status=variable vmaxpu=1.5 vminpu=0.92 daily=RES1_7
New load.bt1226024-2 phases=1 bus=1002451306.3.1.4 model=3 kv=0.22 kw=0.08660159817351597 pf=0.92 conn=delta status=variable vmaxpu=1.5 vminpu=0.92 daily=RES1_7
New load.bt1226068-1 phases=1 bus=1002462814.3.4 model=2 kv=0.127 kw=0.0785953196347032 pf=0.92 conn=wye status=variable vmaxpu=1.5 vminpu=0.92 daily=RES1_7
New load.bt1226068-2 phases=1 bus=1002462814.3.4 model=3 kv=0.127 kw=0.0785953196347032 pf=0.92 conn=wye status=variable vmaxpu=1.5 vminpu=0.92 daily=RES1_7
New load.bt1226306-1 phases=1 bus=1002470353.3.4 model=2 kv=0.127 kw=0.08083789954337899 pf=0.92 conn=wye status=variable vmaxpu=1.5 vminpu=0.92 daily=RES1_7
New load.bt1226306-2 phases=1 bus=1002470353.3.4 model=3 kv=0.127 kw=0.08083789954337899 pf=0.92 conn=wye status=variable vmaxpu=1.5 vminpu=0.92 daily=RES1_7
New load.bt1226819-1 phases=1 bus=1002470479.1.2.4 model=2 kv=0.22 kw=0.08697659817351597 pf=0.92 conn=delta status=variable vmaxpu=1.5 vminpu=0.92 daily=RES1_7
New load.bt1226819-2 phases=1 bus=1002470479.1.2.4 model=3 kv=0.22 kw=0.08697659817351597 pf=0.92 conn=delta status=variable vmaxpu=1.5 vminpu=0.92 daily=RES1_7
New load.bt1228115-1 phases=1 bus=1002449878.1.2.4 model=2 kv=0.22 kw=0.08259646118721461 pf=0.92 conn=delta status=variable vmaxpu=1.5 vminpu=0.92 daily=RES1_7
New load.bt1228115-2 phases=1 bus=1002449878.1.2.4 model=3 kv=0.22 kw=0.08259646118721461 pf=0.92 conn=delta status=variable vmaxpu=1.5 vminpu=0.92 daily=RES1_7
New load.bt1228325-1 phases=1 bus=1002460063.3.4 model=2 kv=0.127 kw=0.08249200913242008 pf=0.92 conn=wye status=variable vmaxpu=1.5 vminpu=0.92 daily=RES1_7
New load.bt1228325-2 phases=1 bus=1002460063.3.4 model=3 kv=0.127 kw=0.08249200913242008 pf=0.92 conn=wye status=variable vmaxpu=1.5 vminpu=0.92 daily=RES1_7
New load.bt1228590-1 phases=1 bus=1003318977.1.4 model=2 kv=0.127 kw=0.08866609589041095 pf=0.92 conn=wye status=variable vmaxpu=1.5 vminpu=0.92 daily=RES1_7
New load.bt1228590-2 phases=1 bus=1003318977.1.4 model=3 kv=0.127 kw=0.08866609589041095 pf=0.92 conn=wye status=variable vmaxpu=1.5 vminpu=0.92 daily=RES1_7
New load.bt1228697-1 phases=1 bus=1002464655.2.3.4 model=2 kv=0.22 kw=0.06372203196347032 pf=0.92 conn=delta status=variable vmaxpu=1.5 vminpu=0.92 daily=RES1_7
New load.bt1228697-2 phases=1 bus=1002464655.2.3.4 model=3 kv=0.22 kw=0.06372203196347032 pf=0.92 conn=delta status=variable vmaxpu=1.5 vminpu=0.92 daily=RES1_7
New load.bt1228945-1 phases=1 bus=1002460469.2.3.4 model=2 kv=0.22 kw=0.08142066210045662 pf=0.92 conn=delta status=variable vmaxpu=1.5 vminpu=0.92 daily=RES1_7
New load.bt1228945-2 phases=1 bus=1002460469.2.3.4 model=3 kv=0.22 kw=0.08142066210045662 pf=0.92 conn=delta status=variable vmaxpu=1.5 vminpu=0.92 daily=RES1_7
New load.bt1229112-1 phases=1 bus=1002459909.1.4 model=2 kv=0.127 kw=0.07742694063926941 pf=0.92 conn=wye status=variable vmaxpu=1.5 vminpu=0.92 daily=RES1_7
New load.bt1229112-2 phases=1 bus=1002459909.1.4 model=3 kv=0.127 kw=0.07742694063926941 pf=0.92 conn=wye status=variable vmaxpu=1.5 vminpu=0.92 daily=RES1_7
New load.bt1229197-1 phases=1 bus=1002464550.1.2.4 model=2 kv=0.22 kw=0.0928316210045662 pf=0.92 conn=delta status=variable vmaxpu=1.5 vminpu=0.92 daily=RES1_7
New load.bt1229197-2 phases=1 bus=1002464550.1.2.4 model=3 kv=0.22 kw=0.0928316210045662 pf=0.92 conn=delta status=variable vmaxpu=1.5 vminpu=0.92 daily=RES1_7
New load.bt1229658-1 phases=3 bus=1002464564.1.2.3.4 model=2 kv=0.22 kw=0.05413527397260274 pf=0.92 conn=delta status=variable vmaxpu=1.5 vminpu=0.92 daily=RES1_7
New load.bt1229658-2 phases=3 bus=1002464564.1.2.3.4 model=3 kv=0.22 kw=0.05413527397260274 pf=0.92 conn=delta status=variable vmaxpu=1.5 vminpu=0.92 daily=RES1_7
New load.bt1229675-1 phases=1 bus=1002449717.1.2.4 model=2 kv=0.22 kw=0.09023116438356164 pf=0.92 conn=delta status=variable vmaxpu=1.5 vminpu=0.92 daily=RES1_7
New load.bt1229675-2 phases=1 bus=1002449717.1.2.4 model=3 kv=0.22 kw=0.09023116438356164 pf=0.92 conn=delta status=variable vmaxpu=1.5 vminpu=0.92 daily=RES1_7
New load.bt1229890-1 phases=1 bus=1002460315.1.2.4 model=2 kv=0.22 kw=0.08458618721461188 pf=0.92 conn=delta status=variable vmaxpu=1.5 vminpu=0.92 daily=RES1_7
New load.bt1229890-2 phases=1 bus=1002460315.1.2.4 model=3 kv=0.22 kw=0.08458618721461188 pf=0.92 conn=delta status=variable vmaxpu=1.5 vminpu=0.92 daily=RES1_7
New load.bt1230229-1 phases=1 bus=1002472054.1.4 model=2 kv=0.127 kw=0.087662100456621 pf=0.92 conn=wye status=variable vmaxpu=1.5 vminpu=0.92 daily=RES1_7
New load.bt1230229-2 phases=1 bus=1002472054.1.4 model=3 kv=0.127 kw=0.087662100456621 pf=0.92 conn=wye status=variable vmaxpu=1.5 vminpu=0.92 daily=RES1_7
New load.bt1230363-1 phases=1 bus=1002471865.2.4 model=2 kv=0.127 kw=0.07346232876712327 pf=0.92 conn=wye status=variable vmaxpu=1.5 vminpu=0.92 daily=RES1_7
New load.bt1230363-2 phases=1 bus=1002471865.2.4 model=3 kv=0.127 kw=0.07346232876712327 pf=0.92 conn=wye status=variable vmaxpu=1.5 vminpu=0.92 daily=RES1_7
New load.bt1231065-1 phases=1 bus=1002451089.1.4 model=2 kv=0.127 kw=0.07786130136986301 pf=0.92 conn=wye status=variable vmaxpu=1.5 vminpu=0.92 daily=RES1_7
New load.bt1231065-2 phases=1 bus=1002451089.1.4 model=3 kv=0.127 kw=0.07786130136986301 pf=0.92 conn=wye status=variable vmaxpu=1.5 vminpu=0.92 daily=RES1_7
New load.bt1232223-1 phases=1 bus=1002449927.2.4 model=2 kv=0.127 kw=0.08196461187214613 pf=0.92 conn=wye status=variable vmaxpu=1.5 vminpu=0.92 daily=RES1_7
New load.bt1232223-2 phases=1 bus=1002449927.2.4 model=3 kv=0.127 kw=0.08196461187214613 pf=0.92 conn=wye status=variable vmaxpu=1.5 vminpu=0.92 daily=RES1_7
New load.bt1232332-1 phases=1 bus=1002453511.3.4 model=2 kv=0.127 kw=0.08505593607305938 pf=0.92 conn=wye status=variable vmaxpu=1.5 vminpu=0.92 daily=RES1_7
New load.bt1232332-2 phases=1 bus=1002453511.3.4 model=3 kv=0.127 kw=0.08505593607305938 pf=0.92 conn=wye status=variable vmaxpu=1.5 vminpu=0.92 daily=RES1_7
New load.bt1232418-1 phases=1 bus=1002474644.1.2.4 model=2 kv=0.22 kw=0.05692751141552511 pf=0.92 conn=delta status=variable vmaxpu=1.5 vminpu=0.92 daily=RES1_7
New load.bt1232418-2 phases=1 bus=1002474644.1.2.4 model=3 kv=0.22 kw=0.05692751141552511 pf=0.92 conn=delta status=variable vmaxpu=1.5 vminpu=0.92 daily=RES1_7
New load.bt1234827-1 phases=1 bus=1002464690.3.4 model=2 kv=0.127 kw=0.05642066210045662 pf=0.92 conn=wye status=variable vmaxpu=1.5 vminpu=0.92 daily=RES1_7
New load.bt1234827-2 phases=1 bus=1002464690.3.4 model=3 kv=0.127 kw=0.05642066210045662 pf=0.92 conn=wye status=variable vmaxpu=1.5 vminpu=0.92 daily=RES1_7
New load.bt1235159-1 phases=1 bus=1002460595.2.3.4 model=2 kv=0.22 kw=0.08560616438356164 pf=0.92 conn=delta status=variable vmaxpu=1.5 vminpu=0.92 daily=RES1_7
New load.bt1235159-2 phases=1 bus=1002460595.2.3.4 model=3 kv=0.22 kw=0.08560616438356164 pf=0.92 conn=delta status=variable vmaxpu=1.5 vminpu=0.92 daily=RES1_7
New load.bt1235476-1 phases=1 bus=1002484500.1.4 model=2 kv=0.127 kw=0.04933219178082192 pf=0.92 conn=wye status=variable vmaxpu=1.5 vminpu=0.92 daily=RES1_7
New load.bt1235476-2 phases=1 bus=1002484500.1.4 model=3 kv=0.127 kw=0.04933219178082192 pf=0.92 conn=wye status=variable vmaxpu=1.5 vminpu=0.92 daily=RES1_7
New load.bt1236043-1 phases=1 bus=1002485998.1.2.4 model=2 kv=0.22 kw=0.08066837899543379 pf=0.92 conn=delta status=variable vmaxpu=1.5 vminpu=0.92 daily=RES1_7
New load.bt1236043-2 phases=1 bus=1002485998.1.2.4 model=3 kv=0.22 kw=0.08066837899543379 pf=0.92 conn=delta status=variable vmaxpu=1.5 vminpu=0.92 daily=RES1_7
New load.bt1236315-1 phases=1 bus=1003293420.1.2.4 model=2 kv=0.22 kw=0.07672089041095889 pf=0.92 conn=delta status=variable vmaxpu=1.5 vminpu=0.92 daily=RES1_7
New load.bt1236315-2 phases=1 bus=1003293420.1.2.4 model=3 kv=0.22 kw=0.07672089041095889 pf=0.92 conn=delta status=variable vmaxpu=1.5 vminpu=0.92 daily=RES1_7
New load.bt1236823-1 phases=1 bus=1002462205.3.1.4 model=2 kv=0.22 kw=0.029375570776255713 pf=0.92 conn=delta status=variable vmaxpu=1.5 vminpu=0.92 daily=RES1_7
New load.bt1236823-2 phases=1 bus=1002462205.3.1.4 model=3 kv=0.22 kw=0.029375570776255713 pf=0.92 conn=delta status=variable vmaxpu=1.5 vminpu=0.92 daily=RES1_7
New load.bt1236997-1 phases=1 bus=1002484388.3.4 model=2 kv=0.127 kw=0.06538984018264841 pf=0.92 conn=wye status=variable vmaxpu=1.5 vminpu=0.92 daily=RES1_7
New load.bt1236997-2 phases=1 bus=1002484388.3.4 model=3 kv=0.127 kw=0.06538984018264841 pf=0.92 conn=wye status=variable vmaxpu=1.5 vminpu=0.92 daily=RES1_7
New load.bt1238026-1 phases=3 bus=1002470339.1.2.3.4 model=2 kv=0.22 kw=0.08080022831050228 pf=0.92 conn=delta status=variable vmaxpu=1.5 vminpu=0.92 daily=RES1_7
New load.bt1238026-2 phases=3 bus=1002470339.1.2.3.4 model=3 kv=0.22 kw=0.08080022831050228 pf=0.92 conn=delta status=variable vmaxpu=1.5 vminpu=0.92 daily=RES1_7
New load.bt1238534-1 phases=1 bus=1002469975.3.1.4 model=2 kv=0.22 kw=0.056320776255707757 pf=0.92 conn=delta status=variable vmaxpu=1.5 vminpu=0.92 daily=RES1_7
New load.bt1238534-2 phases=1 bus=1002469975.3.1.4 model=3 kv=0.22 kw=0.056320776255707757 pf=0.92 conn=delta status=variable vmaxpu=1.5 vminpu=0.92 daily=RES1_7
New load.bt1238695-1 phases=1 bus=1002455058.2.3.4 model=2 kv=0.22 kw=0.09470091324200912 pf=0.92 conn=delta status=variable vmaxpu=1.5 vminpu=0.92 daily=RES1_7
New load.bt1238695-2 phases=1 bus=1002455058.2.3.4 model=3 kv=0.22 kw=0.09470091324200912 pf=0.92 conn=delta status=variable vmaxpu=1.5 vminpu=0.92 daily=RES1_7
New load.bt1240045-1 phases=1 bus=1002466797.1.2.4 model=2 kv=0.22 kw=0.08062614155251141 pf=0.92 conn=delta status=variable vmaxpu=1.5 vminpu=0.92 daily=RES1_7
New load.bt1240045-2 phases=1 bus=1002466797.1.2.4 model=3 kv=0.22 kw=0.08062614155251141 pf=0.92 conn=delta status=variable vmaxpu=1.5 vminpu=0.92 daily=RES1_7
New load.bt1241554-1 phases=1 bus=1002469002.1.2.4 model=2 kv=0.22 kw=0.08699429223744291 pf=0.92 conn=delta status=variable vmaxpu=1.5 vminpu=0.92 daily=RES1_7
New load.bt1241554-2 phases=1 bus=1002469002.1.2.4 model=3 kv=0.22 kw=0.08699429223744291 pf=0.92 conn=delta status=variable vmaxpu=1.5 vminpu=0.92 daily=RES1_7
New load.bt1242090-1 phases=1 bus=1002471907.3.4 model=2 kv=0.127 kw=0.08119634703196348 pf=0.92 conn=wye status=variable vmaxpu=1.5 vminpu=0.92 daily=RES1_7
New load.bt1242090-2 phases=1 bus=1002471907.3.4 model=3 kv=0.127 kw=0.08119634703196348 pf=0.92 conn=wye status=variable vmaxpu=1.5 vminpu=0.92 daily=RES1_7
New load.bt1243381-1 phases=1 bus=1003340096.2.3.4 model=2 kv=0.22 kw=0.0781763698630137 pf=0.92 conn=delta status=variable vmaxpu=1.5 vminpu=0.92 daily=RES1_7
New load.bt1243381-2 phases=1 bus=1003340096.2.3.4 model=3 kv=0.22 kw=0.0781763698630137 pf=0.92 conn=delta status=variable vmaxpu=1.5 vminpu=0.92 daily=RES1_7
New load.bt1244295-1 phases=1 bus=1002486089.2.3.4 model=2 kv=0.22 kw=0.030031392694063925 pf=0.92 conn=delta status=variable vmaxpu=1.5 vminpu=0.92 daily=RES1_7
New load.bt1244295-2 phases=1 bus=1002486089.2.3.4 model=3 kv=0.22 kw=0.030031392694063925 pf=0.92 conn=delta status=variable vmaxpu=1.5 vminpu=0.92 daily=RES1_7
New load.bt1246494-1 phases=1 bus=1002477563.2.3.4 model=2 kv=0.22 kw=0.07188698630136985 pf=0.92 conn=delta status=variable vmaxpu=1.5 vminpu=0.92 daily=RES1_7
New load.bt1246494-2 phases=1 bus=1002477563.2.3.4 model=3 kv=0.22 kw=0.07188698630136985 pf=0.92 conn=delta status=variable vmaxpu=1.5 vminpu=0.92 daily=RES1_7
New load.bt1246721-1 phases=1 bus=1002470710.2.4 model=2 kv=0.127 kw=0.045269977168949774 pf=0.92 conn=wye status=variable vmaxpu=1.5 vminpu=0.92 daily=RES1_7
New load.bt1246721-2 phases=1 bus=1002470710.2.4 model=3 kv=0.127 kw=0.045269977168949774 pf=0.92 conn=wye status=variable vmaxpu=1.5 vminpu=0.92 daily=RES1_7
New load.bt1247397-1 phases=3 bus=1002460910.1.2.3.4 model=2 kv=0.22 kw=0.07912328767123286 pf=0.92 conn=delta status=variable vmaxpu=1.5 vminpu=0.92 daily=RES1_7
New load.bt1247397-2 phases=3 bus=1002460910.1.2.3.4 model=3 kv=0.22 kw=0.07912328767123286 pf=0.92 conn=delta status=variable vmaxpu=1.5 vminpu=0.92 daily=RES1_7
New load.bt1248203-1 phases=1 bus=1002484346.1.4 model=2 kv=0.127 kw=0.078912100456621 pf=0.92 conn=wye status=variable vmaxpu=1.5 vminpu=0.92 daily=RES1_7
New load.bt1248203-2 phases=1 bus=1002484346.1.4 model=3 kv=0.127 kw=0.078912100456621 pf=0.92 conn=wye status=variable vmaxpu=1.5 vminpu=0.92 daily=RES1_7
New load.bt1248410-1 phases=1 bus=1003340061.2.3.4 model=2 kv=0.22 kw=0.06967636986301372 pf=0.92 conn=delta status=variable vmaxpu=1.5 vminpu=0.92 daily=RES1_7
New load.bt1248410-2 phases=1 bus=1003340061.2.3.4 model=3 kv=0.22 kw=0.06967636986301372 pf=0.92 conn=delta status=variable vmaxpu=1.5 vminpu=0.92 daily=RES1_7
New load.bt1249847-1 phases=1 bus=1002472012.1.2.4 model=2 kv=0.22 kw=0.008124429223744293 pf=0.92 conn=delta status=variable vmaxpu=1.5 vminpu=0.92 daily=RES1_7
New load.bt1249847-2 phases=1 bus=1002472012.1.2.4 model=3 kv=0.22 kw=0.008124429223744293 pf=0.92 conn=delta status=variable vmaxpu=1.5 vminpu=0.92 daily=RES1_7
New load.bt1250253-1 phases=1 bus=1002451131.3.4 model=2 kv=0.127 kw=0.042057648401826485 pf=0.92 conn=wye status=variable vmaxpu=1.5 vminpu=0.92 daily=RES1_7
New load.bt1250253-2 phases=1 bus=1002451131.3.4 model=3 kv=0.127 kw=0.042057648401826485 pf=0.92 conn=wye status=variable vmaxpu=1.5 vminpu=0.92 daily=RES1_7
New load.bt1251603-1 phases=1 bus=1002460343.3.4 model=2 kv=0.127 kw=0.06131849315068493 pf=0.92 conn=wye status=variable vmaxpu=1.5 vminpu=0.92 daily=RES1_7
New load.bt1251603-2 phases=1 bus=1002460343.3.4 model=3 kv=0.127 kw=0.06131849315068493 pf=0.92 conn=wye status=variable vmaxpu=1.5 vminpu=0.92 daily=RES1_7
New load.bt1251882-1 phases=1 bus=1002451271.1.4 model=2 kv=0.127 kw=0.08086757990867578 pf=0.92 conn=wye status=variable vmaxpu=1.5 vminpu=0.92 daily=RES1_7
New load.bt1251882-2 phases=1 bus=1002451271.1.4 model=3 kv=0.127 kw=0.08086757990867578 pf=0.92 conn=wye status=variable vmaxpu=1.5 vminpu=0.92 daily=RES1_7